/*---------------------------------------------------------------------------*\
| =========                 |                                                 |
| \\      /  F ield         | OpenFOAM: The Open Source CFD Toolbox           |
|  \\    /   O peration     | Version:  2206                                  |
|   \\  /    A nd           | Website:  www.openfoam.com                      |
|    \\/     M anipulation  |                                                 |
\*---------------------------------------------------------------------------*/
Build  : 47c4c79e-20221208 OPENFOAM=2206 version=v2206
Arch   : "LSB;label=32;scalar=64"
Exec   : interFSIFoam -case /home/omar/OpenFOAM/ParaSiF/demo/FSIBeam_interFSIFoam_2206/sub-iter_5/runData/fluidDomain -parallel -coupled
Date   : Mar 17 2023
Time   : 17:10:01
Host   : omar-XPS-15-9510
PID    : 1890005
MUI [lib_mpi_multidomain]: Rank: 4, "structureDomain" registered interface "threeDInterface0" as e9f53273
I/O    : uncollated
Case   : /home/omar/OpenFOAM/ParaSiF/demo/FSIBeam_interFSIFoam_2206/sub-iter_5/runData/fluidDomain
nProcs : 4
Hosts  :
(
    (omar-XPS-15-9510 4)
)
Pstream initialized with:
    floatTransfer      : 0
    nProcsSimpleSum    : 0
    commsType          : nonBlocking
    polling iterations : 0
trapFpe: Floating point exception trapping enabled (FOAM_SIGFPE).
fileModificationChecking : Monitoring run-time modified files using timeStampMaster (fileModificationSkew 5, maxFileModificationPolls 20)
allowSystemOperations : Allowing user-supplied system call operations

// * * * * * * * * * * * * * * * * * * * * * * * * * * * * * * * * * * * * * //
Create time

--> FOAM Warning : 
    From static Foam::IOstreamOption::compressionType Foam::IOstreamOption::compressionEnum(const Foam::word&, Foam::IOstreamOption::compressionType)
    in file db/IOstreams/IOstreams/IOstreamOption.C at line 115
    Unknown compression specifier 'uncompressed', using compression off
Create mesh for time = 0

Selecting dynamicFvMesh dynamicMotionSolverFvMesh
Selecting motion solver: displacementLaplacian
Applying motion to entire mesh
Selecting motion diffusion: quadratic
Selecting motion diffusion: inverseDistance
Selecting patchDistMethod meshWave

PIMPLE: no residual control data found. Calculations will employ 50 corrector loops

Reading field p_rgh

Reading field U

Reading/calculating face flux field phi

Reading transportProperties

Selecting incompressible transport model Newtonian
Selecting incompressible transport model Newtonian
Turbulence Model is using uniform density
Selecting turbulence model type laminar
Selecting laminar stress model Stokes

Reading g

Reading hRef
Calculating field g.h

No MRF models present

No finite volume options present
DICPCG:  Solving for pcorr:  solution singularity
DICPCG:  Solving for pcorr:  solution singularity
time step continuity errors : sum local = 0, global = 0, cumulative = 0
Constructing face velocity Uf

Courant Number mean: 0 max: 0

Starting time loop

PatchName = interface has ID = 6
Patch6DoFName = interface has ID = 6
MUI [lib_mpi_multidomain]: Rank: 1, "fluidDomain" registered interface "threeDInterface0" as e9f53273
MUI [lib_mpi_multidomain]: Rank: 2, "fluidDomain" registered interface "threeDInterface0" as e9f53273
MUI [lib_mpi_multidomain]: Rank: 3, "fluidDomain" registered interface "threeDInterface0" as e9f53273
MUI [lib_mpi_multidomain]: Rank: 0, "fluidDomain" registered interface "threeDInterface0" as e9f53273
MUI Info [lib_mpi_multidomain]: 1 distinct interface(s) found
MUI [lib_mpi_multidomain]: Setting up interface threeDInterface0 [e9f53273] (rank ids are local to each interface)
MUI [comm_mpi.h]: Rank: 3, Identifier: mpi://fluidDomain/threeDInterface0, Domain size: 4, Peers: 1
MUI [comm_mpi.h]: Rank: 1, Identifier: mpi://fluidDomain/threeDInterface0, Domain size: 4, Peers: 1
MUI [comm_mpi.h]: Rank: 2, Identifier: mpi://fluidDomain/threeDInterface0, Domain size: 4, Peers: 1
MUI [comm_mpi.h]: Rank: 4, Identifier: mpi://structureDomain/threeDInterface0, Domain size: 1, Peers: 4
MUI [comm_mpi.h]: Rank: 0, Identifier: mpi://fluidDomain/threeDInterface0, Domain size: 4, Peers: 1
[3] sendXMin = 0.549999999999999822
[3] sendYMin = 0.00624999999999999861
[3] sendZMin = -0.187500000000000028
[3] sendXMax = 0.550000000000000266
[3] sendYMax = 0.156250000000000028
[3] sendZMax = -0.0124999999999999938
[1] sendXMin = 0.462499999999999911
[1] sendYMin = 0.156249999999999972
[1] sendZMin = -0.200000000000000039
[1] sendXMax = 0.550000000000000155
[1] sendYMax = 0.200000000000000067
[1] sendZMax = -0.0124999999999999972
[0] sendXMin = 0.449999999999999789
[0] sendYMin = 0.00624999999999999861
[0] sendZMin = -0.200000000000000067
[0] sendXMax = 0.537500000000000089
[0] sendYMax = 0.193750000000000033
[0] sendZMax = -0.0124999999999999938
{MUI_Coupling} C++ IQNILS default constructor initial under-relaxation factor: 0.949999999999999956
[2] sendXMin = 0.974999999999999756
[2] sendYMin = 0.112499999999999989
[2] sendZMin = -0.400000000000000133
[2] sendXMax = 1.5
[2] sendYMax = 0.800000000000000266
[2] sendZMax = 0
{MUI_Coupling} C++ IQNILS default constructor initial under-relaxation factor: 0.949999999999999956
{OpenFOAM} interface threeDInterface0 Aitken coupling method selected!
MUI interface threeDInterface0 commit zero step

{MUI_Coupling} C++ IQNILS default constructor initial under-relaxation factor: 0.949999999999999956
{MUI_Coupling} C++ IQNILS default constructor initial under-relaxation factor: 0.949999999999999956
forces beamForces:
    p: p
    U: U
    rho: rhoInf
    Freestream density (rhoInf) set to 1
    Not including porosity effects

forceCoeffs beamForceCoeffs:
    p: p
    U: U
    rho: rhoInf
    Freestream density (rhoInf) set to 1
    Not including porosity effects
    magUInf: 1
    lRef   : 1
    Aref   : 1
    rhoInf : 1
    Selecting all coefficients
    - Drag force: Cd
    - Drag force front: Cd(f)
    - Drag force rear: Cd(r)
    - Lift force: Cl
    - Lift force front: Cl(f)
    - Lift force rear: Cl(r)
    - Pitch moment: CmPitch
    - Roll moment: CmRoll
    - Yaw moment: CmYaw
    - Side force: Cs
    - Side force front: Cs(f)
    - Side force rear: Cs(r)


Courant Number mean: 0 max: 0
Interface Courant Number mean: 0 max: 0
Time = 0.0299999999999999989

Time Steps = 1

sub-Iteration = 1

total current iteration = 1

rho Water: rho [1 -3 0 0 0 0 0] 1000 nu Water: nu [0 2 -1 0 0 0 0] 9.99999999999999955e-07

rho Air: rho [1 -3 0 0 0 0 0] 1 nu Air: nu [0 2 -1 0 0 0 0] 1.48000000000000006e-05

MUI interface threeDInterface0 Commited on 1 iterations

threeDInterface0 forceX = 6.93889390390722838e-18
threeDInterface0 forceY = 0.0392400000000000249
threeDInterface0 forceZ = -0.0196200000000000124
threeDInterface0 tractionX = -8.0743492700011387e-17
threeDInterface0 tractionY = 0.178363636363636474
threeDInterface0 tractionZ = -0.178363636363636391
{OpenFOAM} Fetch iteration 1



{FENICS} ********** STRUCTURAL-ELASTICITY SIMULATION BEGIN **********


{FENICS} ### !!! DEBUG LEVEL ON !!! ###


{FENICS} ### !!! MUI COUPLING ON !!! ###


{FENICS} Current Date and Time:  2023-03-17 17:10:01.684018
{FENICS} System Host Name:  omar-XPS-15-9510


{FENICS} Solver info: 
{FENICS} Solver for the problem:  mumps
{FENICS} Solver for project between domains:  mumps


{FENICS} Input parameters: 
{FENICS} E:  200000.0 [Pa]
{FENICS} rho:  1000.0 [kg/m^3]
{FENICS} nu:  0.4 [-]


Process 4: <Parameter set "dolfin" containing 21 parameter(s) and parameter set(s)>


{FENICS} Total time:  1.0  [s]
{FENICS} Time step size:  0.03  [s]
{FENICS} Time steps:  34  [-]
{FENICS} Start time:  0.03  [s]
{FENICS} Numbers of sub-iterations:  5  [-]


{FENICS} Loading HDF5 mesh ...   
/home/omar/OpenFOAM/ParaSiF/FEniCS/V2019.1.0/dolfin/python/install/lib/python3.8/site-packages/fenics_dolfin-2019.1.0-py3.8-linux-x86_64.egg/dolfin/jit/jit.py:121: RuntimeWarning: mpi4py.MPI.Status size changed, may indicate binary incompatibility. Expected 48 from C header, got 56 from PyObject
  def compile_class(cpp_data, mpi_comm=MPI.comm_world):
/home/omar/OpenFOAM/ParaSiF/FEniCS/V2019.1.0/dolfin/python/install/lib/python3.8/site-packages/fenics_dolfin-2019.1.0-py3.8-linux-x86_64.egg/dolfin/jit/jit.py:121: RuntimeWarning: mpi4py.MPI.Datatype size changed, may indicate binary incompatibility. Expected 32 from C header, got 40 from PyObject
  def compile_class(cpp_data, mpi_comm=MPI.comm_world):
/home/omar/OpenFOAM/ParaSiF/FEniCS/V2019.1.0/dolfin/python/install/lib/python3.8/site-packages/fenics_dolfin-2019.1.0-py3.8-linux-x86_64.egg/dolfin/jit/jit.py:121: RuntimeWarning: mpi4py.MPI.Request size changed, may indicate binary incompatibility. Expected 40 from C header, got 48 from PyObject
  def compile_class(cpp_data, mpi_comm=MPI.comm_world):
/home/omar/OpenFOAM/ParaSiF/FEniCS/V2019.1.0/dolfin/python/install/lib/python3.8/site-packages/fenics_dolfin-2019.1.0-py3.8-linux-x86_64.egg/dolfin/jit/jit.py:121: RuntimeWarning: mpi4py.MPI.Prequest size changed, may indicate binary incompatibility. Expected 40 from C header, got 48 from PyObject
  def compile_class(cpp_data, mpi_comm=MPI.comm_world):
/home/omar/OpenFOAM/ParaSiF/FEniCS/V2019.1.0/dolfin/python/install/lib/python3.8/site-packages/fenics_dolfin-2019.1.0-py3.8-linux-x86_64.egg/dolfin/jit/jit.py:121: RuntimeWarning: mpi4py.MPI.Grequest size changed, may indicate binary incompatibility. Expected 48 from C header, got 56 from PyObject
  def compile_class(cpp_data, mpi_comm=MPI.comm_world):
/home/omar/OpenFOAM/ParaSiF/FEniCS/V2019.1.0/dolfin/python/install/lib/python3.8/site-packages/fenics_dolfin-2019.1.0-py3.8-linux-x86_64.egg/dolfin/jit/jit.py:121: RuntimeWarning: mpi4py.MPI.Message size changed, may indicate binary incompatibility. Expected 40 from C header, got 48 from PyObject
  def compile_class(cpp_data, mpi_comm=MPI.comm_world):
/home/omar/OpenFOAM/ParaSiF/FEniCS/V2019.1.0/dolfin/python/install/lib/python3.8/site-packages/fenics_dolfin-2019.1.0-py3.8-linux-x86_64.egg/dolfin/jit/jit.py:121: RuntimeWarning: mpi4py.MPI.Op size changed, may indicate binary incompatibility. Expected 48 from C header, got 56 from PyObject
  def compile_class(cpp_data, mpi_comm=MPI.comm_world):
/home/omar/OpenFOAM/ParaSiF/FEniCS/V2019.1.0/dolfin/python/install/lib/python3.8/site-packages/fenics_dolfin-2019.1.0-py3.8-linux-x86_64.egg/dolfin/jit/jit.py:121: RuntimeWarning: mpi4py.MPI.Group size changed, may indicate binary incompatibility. Expected 32 from C header, got 40 from PyObject
  def compile_class(cpp_data, mpi_comm=MPI.comm_world):
/home/omar/OpenFOAM/ParaSiF/FEniCS/V2019.1.0/dolfin/python/install/lib/python3.8/site-packages/fenics_dolfin-2019.1.0-py3.8-linux-x86_64.egg/dolfin/jit/jit.py:121: RuntimeWarning: mpi4py.MPI.Info size changed, may indicate binary incompatibility. Expected 32 from C header, got 40 from PyObject
  def compile_class(cpp_data, mpi_comm=MPI.comm_world):
/home/omar/OpenFOAM/ParaSiF/FEniCS/V2019.1.0/dolfin/python/install/lib/python3.8/site-packages/fenics_dolfin-2019.1.0-py3.8-linux-x86_64.egg/dolfin/jit/jit.py:121: RuntimeWarning: mpi4py.MPI.Errhandler size changed, may indicate binary incompatibility. Expected 32 from C header, got 40 from PyObject
  def compile_class(cpp_data, mpi_comm=MPI.comm_world):
/home/omar/OpenFOAM/ParaSiF/FEniCS/V2019.1.0/dolfin/python/install/lib/python3.8/site-packages/fenics_dolfin-2019.1.0-py3.8-linux-x86_64.egg/dolfin/jit/jit.py:121: RuntimeWarning: mpi4py.MPI.Comm size changed, may indicate binary incompatibility. Expected 32 from C header, got 40 from PyObject
  def compile_class(cpp_data, mpi_comm=MPI.comm_world):
/home/omar/OpenFOAM/ParaSiF/FEniCS/V2019.1.0/dolfin/python/install/lib/python3.8/site-packages/fenics_dolfin-2019.1.0-py3.8-linux-x86_64.egg/dolfin/jit/jit.py:121: RuntimeWarning: mpi4py.MPI.Intracomm size changed, may indicate binary incompatibility. Expected 32 from C header, got 40 from PyObject
  def compile_class(cpp_data, mpi_comm=MPI.comm_world):
/home/omar/OpenFOAM/ParaSiF/FEniCS/V2019.1.0/dolfin/python/install/lib/python3.8/site-packages/fenics_dolfin-2019.1.0-py3.8-linux-x86_64.egg/dolfin/jit/jit.py:121: RuntimeWarning: mpi4py.MPI.Topocomm size changed, may indicate binary incompatibility. Expected 32 from C header, got 40 from PyObject
  def compile_class(cpp_data, mpi_comm=MPI.comm_world):
/home/omar/OpenFOAM/ParaSiF/FEniCS/V2019.1.0/dolfin/python/install/lib/python3.8/site-packages/fenics_dolfin-2019.1.0-py3.8-linux-x86_64.egg/dolfin/jit/jit.py:121: RuntimeWarning: mpi4py.MPI.Cartcomm size changed, may indicate binary incompatibility. Expected 32 from C header, got 40 from PyObject
  def compile_class(cpp_data, mpi_comm=MPI.comm_world):
/home/omar/OpenFOAM/ParaSiF/FEniCS/V2019.1.0/dolfin/python/install/lib/python3.8/site-packages/fenics_dolfin-2019.1.0-py3.8-linux-x86_64.egg/dolfin/jit/jit.py:121: RuntimeWarning: mpi4py.MPI.Graphcomm size changed, may indicate binary incompatibility. Expected 32 from C header, got 40 from PyObject
  def compile_class(cpp_data, mpi_comm=MPI.comm_world):
/home/omar/OpenFOAM/ParaSiF/FEniCS/V2019.1.0/dolfin/python/install/lib/python3.8/site-packages/fenics_dolfin-2019.1.0-py3.8-linux-x86_64.egg/dolfin/jit/jit.py:121: RuntimeWarning: mpi4py.MPI.Distgraphcomm size changed, may indicate binary incompatibility. Expected 32 from C header, got 40 from PyObject
  def compile_class(cpp_data, mpi_comm=MPI.comm_world):
/home/omar/OpenFOAM/ParaSiF/FEniCS/V2019.1.0/dolfin/python/install/lib/python3.8/site-packages/fenics_dolfin-2019.1.0-py3.8-linux-x86_64.egg/dolfin/jit/jit.py:121: RuntimeWarning: mpi4py.MPI.Intercomm size changed, may indicate binary incompatibility. Expected 32 from C header, got 40 from PyObject
  def compile_class(cpp_data, mpi_comm=MPI.comm_world):
/home/omar/OpenFOAM/ParaSiF/FEniCS/V2019.1.0/dolfin/python/install/lib/python3.8/site-packages/fenics_dolfin-2019.1.0-py3.8-linux-x86_64.egg/dolfin/jit/jit.py:121: RuntimeWarning: mpi4py.MPI.Win size changed, may indicate binary incompatibility. Expected 40 from C header, got 48 from PyObject
  def compile_class(cpp_data, mpi_comm=MPI.comm_world):
/home/omar/OpenFOAM/ParaSiF/FEniCS/V2019.1.0/dolfin/python/install/lib/python3.8/site-packages/fenics_dolfin-2019.1.0-py3.8-linux-x86_64.egg/dolfin/jit/jit.py:121: RuntimeWarning: mpi4py.MPI.File size changed, may indicate binary incompatibility. Expected 32 from C header, got 40 from PyObject
  def compile_class(cpp_data, mpi_comm=MPI.comm_world):
/home/omar/OpenFOAM/ParaSiF/src/CSM/FEniCS/V2019.1.0/structureFSISolver/structureFSISolver.py:1096: RuntimeWarning: mpi4py.MPI.Status size changed, may indicate binary incompatibility. Expected 48 from C header, got 56 from PyObject
  mesh = BoxMesh(MPI_COMM_WORLD, Point(0, 0, 0),
/home/omar/OpenFOAM/ParaSiF/src/CSM/FEniCS/V2019.1.0/structureFSISolver/structureFSISolver.py:1096: RuntimeWarning: mpi4py.MPI.Datatype size changed, may indicate binary incompatibility. Expected 32 from C header, got 40 from PyObject
  mesh = BoxMesh(MPI_COMM_WORLD, Point(0, 0, 0),
/home/omar/OpenFOAM/ParaSiF/src/CSM/FEniCS/V2019.1.0/structureFSISolver/structureFSISolver.py:1096: RuntimeWarning: mpi4py.MPI.Request size changed, may indicate binary incompatibility. Expected 40 from C header, got 48 from PyObject
  mesh = BoxMesh(MPI_COMM_WORLD, Point(0, 0, 0),
/home/omar/OpenFOAM/ParaSiF/src/CSM/FEniCS/V2019.1.0/structureFSISolver/structureFSISolver.py:1096: RuntimeWarning: mpi4py.MPI.Prequest size changed, may indicate binary incompatibility. Expected 40 from C header, got 48 from PyObject
  mesh = BoxMesh(MPI_COMM_WORLD, Point(0, 0, 0),
/home/omar/OpenFOAM/ParaSiF/src/CSM/FEniCS/V2019.1.0/structureFSISolver/structureFSISolver.py:1096: RuntimeWarning: mpi4py.MPI.Grequest size changed, may indicate binary incompatibility. Expected 48 from C header, got 56 from PyObject
  mesh = BoxMesh(MPI_COMM_WORLD, Point(0, 0, 0),
{FENICS} Done with loading HDF5 mesh


{FENICS} One-step theta:  0.55


{FENICS} Creating function spaces ...   
{FENICS} Done with creating function spaces
{FENICS} Creating functions, test functions and trail functions ...   Done
{FENICS} Non-uniform traction applied
{FENICS} Creating subdomains ...   Done
{FENICS} Creating boundaries ...   Done


{FENICS} Structure Mesh Info: 
{FENICS} Dofs:  7803
{FENICS} Cells: 1536
{FENICS} geometry dimension:  3


{FENICS} Creating 3D boundary conditions ...   Done
{FENICS} facet area calculating
Total area of MUI fetched surface=  0.1479920000000002  m^2
{FENICS} Preparing post-process files ...   Done
{FENICS} Defining variational FORM functions ...   Done
{FENICS} at rank:  0  send_max_X:  0.55  send_min_X:  0.45
{FENICS} at rank:  0  send_max_Y:  0.2  send_min_Y:  0.0
{FENICS} at rank:  0  send_max_Z:  0.0  send_min_Z:  -0.2
{FENICS} at rank:  0  recv_max_X:  0.55  recv_min_X:  0.45
{FENICS} at rank:  0  recv_max_Y:  0.2  recv_min_Y:  0.0
{FENICS} at rank:  0  recv_max_Z:  0.0  recv_min_Z:  -0.2
{FENICS} Defining MUI samplers ...   {FENICS} Done
{FENICS} Commit ZERO step




{FENICS} Time:  0.03
{FENICS} Time Steps:  1


{FENICS} sub-iteration:  1
{FENICS} total sub-iterations to now:  1
{FENICS**} totForce Fetch:  -0.005192402343749998 ;  3.801314731738395e-17 ;  -0.005192402343750001 ; at iteration:  1.0  at rank:  0
{FENICS} fetch step:  1
Process 4: Solving linear variational problem.
{FENICS} Total Force_X on structure:  -0.00261006507108492  at rank  0
{FENICS} Total Force_Y on structure:  7.108697347456176e-17  at rank  0
{FENICS} Total Force_Z on structure:  -0.0026100650710849235  at rank  0
{FENICS} Monitored point deflection [m]:  [-1.42151758e-06 -7.29129530e-07  5.55692935e-07]
{FENICS} MUI commit step:  1
{FENICS} max displacement_function: 1.7445603417868473e-06


{FENICS} sub-iteration:  2
{FENICS} total sub-iterations to now:  2
PIMPLE: iteration 1
DICPCG:  Solving for cellDisplacementx:  solution singularity
DICPCG:  Solving for cellDisplacementy:  solution singularity
DICPCG:  Solving for cellDisplacementz:  solution singularity
DICPCG:  Solving for pcorr, Initial residual = 4.5090834822954945e-13, Final residual = 2.41250285085250948e-13, No Iterations 3
DICPCG:  Solving for pcorr, Initial residual = 2.41250285085090753e-13, Final residual = 2.67969190238766588e-13, No Iterations 3
time step continuity errors : sum local = 1.68888145108647581e-34, global = -6.70641292967498691e-36, cumulative = -6.70641292967498691e-36
Mesh Courant Number mean: 0 max: 0
smoothSolver:  Solving for alpha.water, Initial residual = 8.36441831057364519e-37, Final residual = 8.36441831057364519e-37, No Iterations 0
Phase-1 volume fraction = 0.100741859243696594  Min(alpha.water) = 0  Max(alpha.water) = 1
MULES: Correcting alpha.water
MULES: Correcting alpha.water
Phase-1 volume fraction = 0.100741859243696594  Min(alpha.water) = 0  Max(alpha.water) = 1
DILUPBiCG:  Solving for Ux, Initial residual = 1, Final residual = 1.77070664228763633e-10, No Iterations 3
DILUPBiCG:  Solving for Uy, Initial residual = 1, Final residual = 2.91383023338774999e-13, No Iterations 3
DILUPBiCG:  Solving for Uz, Initial residual = 0.999999971189945103, Final residual = 8.38573498758959766e-11, No Iterations 3
DICPCG:  Solving for p_rgh, Initial residual = 1, Final residual = 0.0393732374066782728, No Iterations 3
DICPCG:  Solving for p_rgh, Initial residual = 0.0176105081366757545, Final residual = 0.00078094378811559631, No Iterations 18
time step continuity errors : sum local = 0.0747492056507214619, global = -0.0152622661012191529, cumulative = -0.0152622661012191529
DICPCG:  Solving for p_rgh, Initial residual = 0.00116899550630355739, Final residual = 5.10650238860806065e-05, No Iterations 46
DICPCG:  Solving for p_rgh, Initial residual = 5.10701310504457881e-05, Final residual = 9.74746560142090841e-08, No Iterations 62
time step continuity errors : sum local = 1.15807810995293044e-05, global = 5.38282571964027966e-08, cumulative = -0.0152622122729619558
PIMPLE: iteration 2
DICPCG:  Solving for cellDisplacementx:  solution singularity
DICPCG:  Solving for cellDisplacementy:  solution singularity
DICPCG:  Solving for cellDisplacementz:  solution singularity
DICPCG:  Solving for pcorr, Initial residual = 1, Final residual = 7.6318608577683257e-09, No Iterations 116
DICPCG:  Solving for pcorr, Initial residual = 3.83223974021486231e-09, Final residual = 1.63647385041285207e-09, No Iterations 3
time step continuity errors : sum local = 4.28039539179044213e-13, global = 2.88182815303188638e-15, cumulative = -0.0152622122729590744
Mesh Courant Number mean: 0 max: 0
smoothSolver:  Solving for alpha.water, Initial residual = 0.121278242301250394, Final residual = 7.54012973350052365e-09, No Iterations 51
Phase-1 volume fraction = 0.100741861478250733  Min(alpha.water) = 0  Max(alpha.water) = 1.00000000000003819
MULES: Correcting alpha.water
MULES: Correcting alpha.water
Phase-1 volume fraction = 0.100741861478251912  Min(alpha.water) = -0.000655482645278685286  Max(alpha.water) = 1.00000000000003819
DILUPBiCG:  Solving for Ux, Initial residual = 0.775477381687884382, Final residual = 0.000466203690035577934, No Iterations 6
DILUPBiCG:  Solving for Uy, Initial residual = 0.74795383703993934, Final residual = 0.000669776331027133187, No Iterations 4
DILUPBiCG:  Solving for Uz, Initial residual = 0.648507639725198315, Final residual = 0.000350237606815000254, No Iterations 6
DICPCG:  Solving for p_rgh, Initial residual = 0.0537377156671115866, Final residual = 0.00198930282053886871, No Iterations 3
DICPCG:  Solving for p_rgh, Initial residual = 0.00210767996510505869, Final residual = 0.000105276132479887818, No Iterations 23
time step continuity errors : sum local = 0.00475669845097271594, global = -0.000903951714684877745, cumulative = -0.0161661639876439535
DICPCG:  Solving for p_rgh, Initial residual = 0.010256381172352478, Final residual = 0.000451020137967260068, No Iterations 14
DICPCG:  Solving for p_rgh, Initial residual = 0.000450168593857428541, Final residual = 7.63112889557988201e-08, No Iterations 74
time step continuity errors : sum local = 3.49943949958270629e-06, global = 1.41065524735168556e-07, cumulative = -0.0161660229221192199
PIMPLE: iteration 3
DICPCG:  Solving for cellDisplacementx:  solution singularity
DICPCG:  Solving for cellDisplacementy:  solution singularity
DICPCG:  Solving for cellDisplacementz:  solution singularity
DICPCG:  Solving for pcorr, Initial residual = 1, Final residual = 9.77422204161694058e-09, No Iterations 116
DICPCG:  Solving for pcorr, Initial residual = 3.25402238752073208e-09, Final residual = 1.5653825873189397e-09, No Iterations 3
time step continuity errors : sum local = 6.66053367354765926e-13, global = -3.00158778601579956e-15, cumulative = -0.016166022922122221
Mesh Courant Number mean: 0 max: 0
smoothSolver:  Solving for alpha.water, Initial residual = 0.0163229388107714105, Final residual = 8.20972655219150758e-09, No Iterations 8
Phase-1 volume fraction = 0.100741856615378739  Min(alpha.water) = 0  Max(alpha.water) = 1.00000000000002864
MULES: Correcting alpha.water
MULES: Correcting alpha.water
Phase-1 volume fraction = 0.100741856616140421  Min(alpha.water) = -0.00188890529795483503  Max(alpha.water) = 1.00000000000002864
DILUPBiCG:  Solving for Ux, Initial residual = 0.568796745064800824, Final residual = 0.000240674300529570542, No Iterations 5
DILUPBiCG:  Solving for Uy, Initial residual = 0.280436028119404102, Final residual = 5.79198357604546906e-05, No Iterations 5
DILUPBiCG:  Solving for Uz, Initial residual = 0.464341793217358079, Final residual = 0.000335243544974725329, No Iterations 5
DICPCG:  Solving for p_rgh, Initial residual = 0.0318324515937971758, Final residual = 0.00155752423175911062, No Iterations 6
DICPCG:  Solving for p_rgh, Initial residual = 0.00153193440715939408, Final residual = 6.90948787815168339e-05, No Iterations 51
time step continuity errors : sum local = 0.00279899285675286108, global = 9.48240993075519538e-06, cumulative = -0.0161565405121914668
DICPCG:  Solving for p_rgh, Initial residual = 0.00833110448568030737, Final residual = 0.000388257239145907646, No Iterations 21
DICPCG:  Solving for p_rgh, Initial residual = 0.000385646564660737181, Final residual = 9.26815056315422598e-08, No Iterations 71
time step continuity errors : sum local = 3.844108192564236e-06, global = 8.96367136745798202e-08, cumulative = -0.0161564508754777937
PIMPLE: iteration 4
DICPCG:  Solving for cellDisplacementx:  solution singularity
DICPCG:  Solving for cellDisplacementy:  solution singularity
DICPCG:  Solving for cellDisplacementz:  solution singularity
DICPCG:  Solving for pcorr, Initial residual = 1, Final residual = 9.34170236062975274e-09, No Iterations 112
DICPCG:  Solving for pcorr, Initial residual = 4.5938414299723704e-09, Final residual = 2.38915224282308783e-09, No Iterations 3
time step continuity errors : sum local = 1.53383685042124219e-12, global = -9.41085114143836975e-14, cumulative = -0.0161564508755719025
Mesh Courant Number mean: 0 max: 0
smoothSolver:  Solving for alpha.water, Initial residual = 0.0175216315626498531, Final residual = 2.03758014240266325e-09, No Iterations 11
Phase-1 volume fraction = 0.100741858473524099  Min(alpha.water) = -1.50306216027396995e-55  Max(alpha.water) = 1.00000000000001088
MULES: Correcting alpha.water
MULES: Correcting alpha.water
Phase-1 volume fraction = 0.100741858473528373  Min(alpha.water) = -0.00127173532424320343  Max(alpha.water) = 1.00000000000001088
DILUPBiCG:  Solving for Ux, Initial residual = 0.216430345381490558, Final residual = 5.26767984435184364e-05, No Iterations 7
DILUPBiCG:  Solving for Uy, Initial residual = 0.198778767647776161, Final residual = 0.000122781435902632894, No Iterations 8
DILUPBiCG:  Solving for Uz, Initial residual = 0.217953490103665076, Final residual = 7.15967059135176869e-05, No Iterations 8
DICPCG:  Solving for p_rgh, Initial residual = 0.0610132584724721594, Final residual = 0.00294291864173014438, No Iterations 13
DICPCG:  Solving for p_rgh, Initial residual = 0.00283248026125322702, Final residual = 0.000115787638918759135, No Iterations 46
time step continuity errors : sum local = 0.00567573691414409269, global = -0.000122069898476300561, cumulative = -0.0162785207740482017
DICPCG:  Solving for p_rgh, Initial residual = 0.0205199743860383435, Final residual = 0.000991699521595658991, No Iterations 18
DICPCG:  Solving for p_rgh, Initial residual = 0.00104589333228583123, Final residual = 8.84894367139816993e-08, No Iterations 75
time step continuity errors : sum local = 3.95814852140325501e-06, global = -1.95519552163787673e-07, cumulative = -0.0162787162936003649
PIMPLE: iteration 5
DICPCG:  Solving for cellDisplacementx:  solution singularity
DICPCG:  Solving for cellDisplacementy:  solution singularity
DICPCG:  Solving for cellDisplacementz:  solution singularity
DICPCG:  Solving for pcorr, Initial residual = 1, Final residual = 7.87790609319470997e-09, No Iterations 116
DICPCG:  Solving for pcorr, Initial residual = 2.64470371031819029e-09, Final residual = 1.35058744010848221e-09, No Iterations 3
time step continuity errors : sum local = 5.76748748745787908e-12, global = -9.39772291038159705e-14, cumulative = -0.0162787162936943418
Mesh Courant Number mean: 0 max: 0
smoothSolver:  Solving for alpha.water, Initial residual = 0.0159378041555280139, Final residual = 4.90470684201197632e-09, No Iterations 15
Phase-1 volume fraction = 0.100741831928438469  Min(alpha.water) = 0  Max(alpha.water) = 1.0000000000007192
MULES: Correcting alpha.water
MULES: Correcting alpha.water
Phase-1 volume fraction = 0.100741838236471287  Min(alpha.water) = -0.0309052256217382734  Max(alpha.water) = 1.0000000000007192
DILUPBiCG:  Solving for Ux, Initial residual = 0.478010464515693123, Final residual = 0.000325036142683422596, No Iterations 9
DILUPBiCG:  Solving for Uy, Initial residual = 0.469645975674545579, Final residual = 0.000368589337858896409, No Iterations 8
DILUPBiCG:  Solving for Uz, Initial residual = 0.242730964212225148, Final residual = 7.74101180389851542e-05, No Iterations 9
DICPCG:  Solving for p_rgh, Initial residual = 0.0174523438822692077, Final residual = 0.000724072563468906925, No Iterations 45
DICPCG:  Solving for p_rgh, Initial residual = 0.000584173982694605599, Final residual = 2.75169676538923293e-05, No Iterations 43
time step continuity errors : sum local = 0.00113998811744969622, global = -0.000104653897117252327, cumulative = -0.0163833701908115935
DICPCG:  Solving for p_rgh, Initial residual = 0.00749418002168060308, Final residual = 0.000356876201270120961, No Iterations 34
DICPCG:  Solving for p_rgh, Initial residual = 0.000406250158866215574, Final residual = 9.22584710794348351e-08, No Iterations 66
time step continuity errors : sum local = 3.37571053106587112e-06, global = -2.08254226344759647e-07, cumulative = -0.0163835784450379399
PIMPLE: iteration 6
DICPCG:  Solving for cellDisplacementx:  solution singularity
DICPCG:  Solving for cellDisplacementy:  solution singularity
DICPCG:  Solving for cellDisplacementz:  solution singularity
DICPCG:  Solving for pcorr, Initial residual = 1, Final residual = 7.97030641493845632e-09, No Iterations 111
DICPCG:  Solving for pcorr, Initial residual = 4.31717227945140442e-09, Final residual = 2.01397280578482215e-09, No Iterations 3
time step continuity errors : sum local = 4.63516459647604504e-12, global = -1.36022435010905902e-13, cumulative = -0.016383578445173963
Mesh Courant Number mean: 0 max: 0
smoothSolver:  Solving for alpha.water, Initial residual = 0.0130978813244542278, Final residual = 9.99334936368129294e-09, No Iterations 10
Phase-1 volume fraction = 0.100741855342328185  Min(alpha.water) = 0  Max(alpha.water) = 1.0000000000005882
MULES: Correcting alpha.water
MULES: Correcting alpha.water
Phase-1 volume fraction = 0.100741855342328837  Min(alpha.water) = -0.00590850908245922624  Max(alpha.water) = 1.0000000000005882
DILUPBiCG:  Solving for Ux, Initial residual = 0.111713261830466357, Final residual = 6.01421660812758355e-06, No Iterations 8
DILUPBiCG:  Solving for Uy, Initial residual = 0.247418734980508037, Final residual = 0.000151619031931777046, No Iterations 7
DILUPBiCG:  Solving for Uz, Initial residual = 0.294032703699993292, Final residual = 0.000100868516158634941, No Iterations 7
DICPCG:  Solving for p_rgh, Initial residual = 0.0722567086661353719, Final residual = 0.00332870317594707562, No Iterations 15
DICPCG:  Solving for p_rgh, Initial residual = 0.00479541325163578089, Final residual = 0.000196382805639932199, No Iterations 44
time step continuity errors : sum local = 0.00449502586980608885, global = 0.000398405144677156328, cumulative = -0.0159851733004968063
DICPCG:  Solving for p_rgh, Initial residual = 0.042738647784837755, Final residual = 0.00204060114652011111, No Iterations 23
DICPCG:  Solving for p_rgh, Initial residual = 0.00143351819249105819, Final residual = 8.59655439456721047e-08, No Iterations 75
time step continuity errors : sum local = 2.42487803995743133e-06, global = -1.95103296196293333e-08, cumulative = -0.0159851928108264256
PIMPLE: iteration 7
DICPCG:  Solving for cellDisplacementx:  solution singularity
DICPCG:  Solving for cellDisplacementy:  solution singularity
DICPCG:  Solving for cellDisplacementz:  solution singularity
DICPCG:  Solving for pcorr, Initial residual = 1, Final residual = 8.52026155875141308e-09, No Iterations 113
DICPCG:  Solving for pcorr, Initial residual = 4.10666328036214845e-09, Final residual = 2.53455470114660669e-09, No Iterations 3
time step continuity errors : sum local = 3.08865291798381955e-12, global = -1.36861543601048639e-13, cumulative = -0.0159851928109632883
Mesh Courant Number mean: 0 max: 0
smoothSolver:  Solving for alpha.water, Initial residual = 0.0137220027033040093, Final residual = 7.32902092525101899e-09, No Iterations 21
Phase-1 volume fraction = 0.100741856228755214  Min(alpha.water) = 0  Max(alpha.water) = 1.00000000000033928
MULES: Correcting alpha.water
MULES: Correcting alpha.water
Phase-1 volume fraction = 0.100741856228762167  Min(alpha.water) = -0.0429291990624048117  Max(alpha.water) = 1.00000000000033928
DILUPBiCG:  Solving for Ux, Initial residual = 0.222509625826501634, Final residual = 5.46182782884189249e-05, No Iterations 11
DILUPBiCG:  Solving for Uy, Initial residual = 0.295911409149732907, Final residual = 0.000176886637155584085, No Iterations 11
DILUPBiCG:  Solving for Uz, Initial residual = 0.52539102552180672, Final residual = 0.000374460342341212849, No Iterations 13
DICPCG:  Solving for p_rgh, Initial residual = 0.05291791529488684, Final residual = 0.00250069873491226384, No Iterations 13
DICPCG:  Solving for p_rgh, Initial residual = 0.00228579235356934267, Final residual = 0.000102439955761642125, No Iterations 28
time step continuity errors : sum local = 0.00421252914153249364, global = 0.000490811200086969089, cumulative = -0.0154943816108763198
DICPCG:  Solving for p_rgh, Initial residual = 0.0118159660989048225, Final residual = 0.000533468310103811169, No Iterations 23
DICPCG:  Solving for p_rgh, Initial residual = 0.000580703300659392578, Final residual = 9.69472537121785447e-08, No Iterations 74
time step continuity errors : sum local = 3.81380059298090931e-06, global = 2.88844726998145136e-07, cumulative = -0.015494092766149322
PIMPLE: iteration 8
DICPCG:  Solving for cellDisplacementx:  solution singularity
DICPCG:  Solving for cellDisplacementy:  solution singularity
DICPCG:  Solving for cellDisplacementz:  solution singularity
DICPCG:  Solving for pcorr, Initial residual = 1, Final residual = 9.30045858886498876e-09, No Iterations 119
DICPCG:  Solving for pcorr, Initial residual = 3.14574985306914879e-09, Final residual = 2.159090742096018e-09, No Iterations 3
time step continuity errors : sum local = 2.54467879296663202e-12, global = -8.40663987875791832e-14, cumulative = -0.0154940927662333885
Mesh Courant Number mean: 0 max: 0
smoothSolver:  Solving for alpha.water, Initial residual = 0.0131866608461632794, Final residual = 3.56307841221685171e-09, No Iterations 10
Phase-1 volume fraction = 0.100741859002776615  Min(alpha.water) = 0  Max(alpha.water) = 1.00000000000027667
MULES: Correcting alpha.water
MULES: Correcting alpha.water
Phase-1 volume fraction = 0.100741859002842299  Min(alpha.water) = -0.0108931947204836295  Max(alpha.water) = 1.00000000000027667
DILUPBiCG:  Solving for Ux, Initial residual = 0.408134518396129575, Final residual = 0.000389469488186557132, No Iterations 6
DILUPBiCG:  Solving for Uy, Initial residual = 0.234228066637575671, Final residual = 0.000106771488947980924, No Iterations 6
DILUPBiCG:  Solving for Uz, Initial residual = 0.358356377871547838, Final residual = 0.000122112779486310011, No Iterations 6
DICPCG:  Solving for p_rgh, Initial residual = 0.0515772660926936063, Final residual = 0.00256493062793810732, No Iterations 11
DICPCG:  Solving for p_rgh, Initial residual = 0.00268798853130718498, Final residual = 0.000132328709386683751, No Iterations 36
time step continuity errors : sum local = 0.00486625123301816839, global = -0.00015971131756332434, cumulative = -0.015653804083796713
DICPCG:  Solving for p_rgh, Initial residual = 0.0247704034034573924, Final residual = 0.00122668379567623964, No Iterations 13
DICPCG:  Solving for p_rgh, Initial residual = 0.00119608885644775049, Final residual = 9.12681439231852025e-08, No Iterations 78
time step continuity errors : sum local = 3.30127748767265705e-06, global = 2.72222181684893645e-07, cumulative = -0.0156535318616150276
PIMPLE: iteration 9
DICPCG:  Solving for cellDisplacementx:  solution singularity
DICPCG:  Solving for cellDisplacementy:  solution singularity
DICPCG:  Solving for cellDisplacementz:  solution singularity
DICPCG:  Solving for pcorr, Initial residual = 1, Final residual = 8.31099510598763871e-09, No Iterations 114
DICPCG:  Solving for pcorr, Initial residual = 3.5560990773261248e-09, Final residual = 1.98842423660283034e-09, No Iterations 3
time step continuity errors : sum local = 1.37718426007785626e-12, global = 5.27941843786305902e-15, cumulative = -0.0156535318616097471
Mesh Courant Number mean: 0 max: 0
smoothSolver:  Solving for alpha.water, Initial residual = 0.0122702086049961152, Final residual = 9.40452655544547982e-09, No Iterations 19
Phase-1 volume fraction = 0.100741855384602647  Min(alpha.water) = 0  Max(alpha.water) = 1.00000000000025024
MULES: Correcting alpha.water
MULES: Correcting alpha.water
Phase-1 volume fraction = 0.100741855384612167  Min(alpha.water) = -0.0931854835771878942  Max(alpha.water) = 1.00000000000025024
DILUPBiCG:  Solving for Ux, Initial residual = 0.187854841939705142, Final residual = 0.000109421922473148847, No Iterations 11
DILUPBiCG:  Solving for Uy, Initial residual = 0.253213837543210862, Final residual = 4.88418070720972249e-05, No Iterations 11
DILUPBiCG:  Solving for Uz, Initial residual = 0.710630068058021203, Final residual = 0.000118830141796633272, No Iterations 11
DICPCG:  Solving for p_rgh, Initial residual = 0.0453706175151498761, Final residual = 0.00186777189937628336, No Iterations 16
DICPCG:  Solving for p_rgh, Initial residual = 0.00200647998950262548, Final residual = 9.96619163813654909e-05, No Iterations 29
time step continuity errors : sum local = 0.00310171630315636895, global = 0.00112321169906690792, cumulative = -0.0145303201625428396
DICPCG:  Solving for p_rgh, Initial residual = 0.0150018768909329237, Final residual = 0.000646937163514837944, No Iterations 24
DICPCG:  Solving for p_rgh, Initial residual = 0.000580081991978066615, Final residual = 9.69545599855762753e-08, No Iterations 67
time step continuity errors : sum local = 3.20529302538695604e-06, global = -1.88674300417692952e-07, cumulative = -0.0145305088368432572
PIMPLE: iteration 10
DICPCG:  Solving for cellDisplacementx:  solution singularity
DICPCG:  Solving for cellDisplacementy:  solution singularity
DICPCG:  Solving for cellDisplacementz:  solution singularity
DICPCG:  Solving for pcorr, Initial residual = 1, Final residual = 8.50833377504070813e-09, No Iterations 112
DICPCG:  Solving for pcorr, Initial residual = 3.3333970058287844e-09, Final residual = 2.02803892305998232e-09, No Iterations 3
time step continuity errors : sum local = 1.40940672863228242e-12, global = -5.57095065255646285e-14, cumulative = -0.0145305088368989661
Mesh Courant Number mean: 0 max: 0
smoothSolver:  Solving for alpha.water, Initial residual = 0.0137905490412852938, Final residual = 5.17310006045390266e-09, No Iterations 15
Phase-1 volume fraction = 0.100741859103086251  Min(alpha.water) = 0  Max(alpha.water) = 1.00000000000028044
MULES: Correcting alpha.water
MULES: Correcting alpha.water
Phase-1 volume fraction = 0.100741859103120029  Min(alpha.water) = -0.0345209869588207902  Max(alpha.water) = 1.00000000000028044
DILUPBiCG:  Solving for Ux, Initial residual = 0.263002061998200753, Final residual = 0.000227169447323934506, No Iterations 8
DILUPBiCG:  Solving for Uy, Initial residual = 0.264121360422681861, Final residual = 0.000114276075133764839, No Iterations 9
DILUPBiCG:  Solving for Uz, Initial residual = 0.707292041245493275, Final residual = 0.000500122549897953433, No Iterations 8
DICPCG:  Solving for p_rgh, Initial residual = 0.0426731291690442063, Final residual = 0.00196904729035853, No Iterations 9
DICPCG:  Solving for p_rgh, Initial residual = 0.00191488168400188595, Final residual = 8.49309644766355483e-05, No Iterations 38
time step continuity errors : sum local = 0.00295375977043763841, global = -0.000142245154831651804, cumulative = -0.014672753991730618
DICPCG:  Solving for p_rgh, Initial residual = 0.012972793446955358, Final residual = 0.000639916478555823689, No Iterations 14
DICPCG:  Solving for p_rgh, Initial residual = 0.000657414244931913989, Final residual = 8.80532930057281713e-08, No Iterations 74
time step continuity errors : sum local = 2.97888068288131194e-06, global = 2.98643572470834877e-07, cumulative = -0.0146724553481581473
PIMPLE: iteration 11
DICPCG:  Solving for cellDisplacementx:  solution singularity
DICPCG:  Solving for cellDisplacementy:  solution singularity
DICPCG:  Solving for cellDisplacementz:  solution singularity
DICPCG:  Solving for pcorr, Initial residual = 1, Final residual = 8.52434626153651376e-09, No Iterations 116
DICPCG:  Solving for pcorr, Initial residual = 2.87590318595048883e-09, Final residual = 1.48480331195521854e-09, No Iterations 3
time step continuity errors : sum local = 3.03648093580215902e-12, global = 8.72136356067104833e-14, cumulative = -0.0146724553480709341
Mesh Courant Number mean: 0 max: 0
smoothSolver:  Solving for alpha.water, Initial residual = 0.0148612609745486512, Final residual = 8.27506267683805755e-09, No Iterations 15
Phase-1 volume fraction = 0.100741859695970618  Min(alpha.water) = 0  Max(alpha.water) = 1.00000000000033817
MULES: Correcting alpha.water
MULES: Correcting alpha.water
Phase-1 volume fraction = 0.100741859701460532  Min(alpha.water) = -0.0261439143879581802  Max(alpha.water) = 1.00000000000033817
DILUPBiCG:  Solving for Ux, Initial residual = 0.442393100103774639, Final residual = 0.000184675314014044181, No Iterations 8
DILUPBiCG:  Solving for Uy, Initial residual = 0.257744504415250153, Final residual = 5.69046573451779199e-05, No Iterations 8
DILUPBiCG:  Solving for Uz, Initial residual = 0.75208541131603035, Final residual = 0.000511576403949061289, No Iterations 8
DICPCG:  Solving for p_rgh, Initial residual = 0.0501168668718158655, Final residual = 0.00225576784038695631, No Iterations 12
DICPCG:  Solving for p_rgh, Initial residual = 0.00233913811280350064, Final residual = 0.000106871481906296986, No Iterations 27
time step continuity errors : sum local = 0.00409971165121826575, global = -0.00104763465929762233, cumulative = -0.0157200900073685562
DICPCG:  Solving for p_rgh, Initial residual = 0.0143410368693036028, Final residual = 0.000659343586803337535, No Iterations 18
DICPCG:  Solving for p_rgh, Initial residual = 0.000637664529164200873, Final residual = 8.60904069738545209e-08, No Iterations 70
time step continuity errors : sum local = 3.26041465149069597e-06, global = 2.51689807804640477e-08, cumulative = -0.0157200648383877747
PIMPLE: iteration 12
DICPCG:  Solving for cellDisplacementx:  solution singularity
DICPCG:  Solving for cellDisplacementy:  solution singularity
DICPCG:  Solving for cellDisplacementz:  solution singularity
DICPCG:  Solving for pcorr, Initial residual = 1, Final residual = 9.2052875964663103e-09, No Iterations 110
DICPCG:  Solving for pcorr, Initial residual = 3.91098276319582508e-09, Final residual = 2.38403981343671226e-09, No Iterations 3
time step continuity errors : sum local = 1.11377914959293509e-12, global = -6.2053373818783461e-15, cumulative = -0.0157200648383939816
Mesh Courant Number mean: 0 max: 0
smoothSolver:  Solving for alpha.water, Initial residual = 0.0158353858969314774, Final residual = 8.80164957006812788e-09, No Iterations 15
Phase-1 volume fraction = 0.100741855499902666  Min(alpha.water) = 0  Max(alpha.water) = 1.00000000000034373
MULES: Correcting alpha.water
MULES: Correcting alpha.water
Phase-1 volume fraction = 0.100741855550216058  Min(alpha.water) = -0.0440185537847434943  Max(alpha.water) = 1.00000000000034373
DILUPBiCG:  Solving for Ux, Initial residual = 0.404166087745961855, Final residual = 0.00023601288178214775, No Iterations 9
DILUPBiCG:  Solving for Uy, Initial residual = 0.280701850632168626, Final residual = 2.6120814224883528e-05, No Iterations 10
DILUPBiCG:  Solving for Uz, Initial residual = 0.617368455163158192, Final residual = 0.000402230788393471549, No Iterations 8
DICPCG:  Solving for p_rgh, Initial residual = 0.0467535478839507732, Final residual = 0.00223071481051997792, No Iterations 7
DICPCG:  Solving for p_rgh, Initial residual = 0.00210521992794586357, Final residual = 9.20915911060203693e-05, No Iterations 36
time step continuity errors : sum local = 0.00336172753963794512, global = 0.00050104604183389453, cumulative = -0.0152190187965600878
DICPCG:  Solving for p_rgh, Initial residual = 0.0100144994961832556, Final residual = 0.000452688712277878145, No Iterations 13
DICPCG:  Solving for p_rgh, Initial residual = 0.000484281348293111129, Final residual = 8.58989876853381689e-08, No Iterations 70
time step continuity errors : sum local = 3.03574288503785394e-06, global = 4.15589202562077162e-08, cumulative = -0.0152189772376398313
PIMPLE: iteration 13
DICPCG:  Solving for cellDisplacementx:  solution singularity
DICPCG:  Solving for cellDisplacementy:  solution singularity
DICPCG:  Solving for cellDisplacementz:  solution singularity
DICPCG:  Solving for pcorr, Initial residual = 1, Final residual = 9.00603662756975094e-09, No Iterations 113
DICPCG:  Solving for pcorr, Initial residual = 3.15075590228934138e-09, Final residual = 1.91596684167663424e-09, No Iterations 3
time step continuity errors : sum local = 1.26965701433146871e-12, global = -7.20241514212693774e-14, cumulative = -0.0152189772377118553
Mesh Courant Number mean: 0 max: 0
smoothSolver:  Solving for alpha.water, Initial residual = 0.0149378593186791555, Final residual = 2.63700417361982142e-09, No Iterations 13
Phase-1 volume fraction = 0.100741858165244613  Min(alpha.water) = 0  Max(alpha.water) = 1.00000000000012501
MULES: Correcting alpha.water
MULES: Correcting alpha.water
Phase-1 volume fraction = 0.100741858165244974  Min(alpha.water) = -0.0299803978877985662  Max(alpha.water) = 1.00000000000012501
DILUPBiCG:  Solving for Ux, Initial residual = 0.424990767895303323, Final residual = 0.000101929227798453596, No Iterations 8
DILUPBiCG:  Solving for Uy, Initial residual = 0.262234175143605475, Final residual = 0.000103953538295511802, No Iterations 7
DILUPBiCG:  Solving for Uz, Initial residual = 0.668071007366405456, Final residual = 0.00037712385364231676, No Iterations 7
DICPCG:  Solving for p_rgh, Initial residual = 0.0429010288140701662, Final residual = 0.00212680242077870453, No Iterations 9
DICPCG:  Solving for p_rgh, Initial residual = 0.00231493623859986997, Final residual = 0.000102578394429335689, No Iterations 29
time step continuity errors : sum local = 0.00356503746723549125, global = -0.000613179770122720849, cumulative = -0.0158321570078345762
DICPCG:  Solving for p_rgh, Initial residual = 0.0119494219709008944, Final residual = 0.000578011869875748817, No Iterations 17
DICPCG:  Solving for p_rgh, Initial residual = 0.000523549247935245683, Final residual = 9.96575243629666264e-08, No Iterations 70
time step continuity errors : sum local = 3.53340865627946537e-06, global = 1.49527455639434379e-07, cumulative = -0.0158320074803789367
PIMPLE: iteration 14
DICPCG:  Solving for cellDisplacementx:  solution singularity
DICPCG:  Solving for cellDisplacementy:  solution singularity
DICPCG:  Solving for cellDisplacementz:  solution singularity
DICPCG:  Solving for pcorr, Initial residual = 1, Final residual = 8.82759974937080374e-09, No Iterations 111
DICPCG:  Solving for pcorr, Initial residual = 4.31061567412816571e-09, Final residual = 2.71091046379341894e-09, No Iterations 3
time step continuity errors : sum local = 2.89253557353209367e-13, global = 5.70636112957343539e-16, cumulative = -0.0158320074803783677
Mesh Courant Number mean: 0 max: 0
smoothSolver:  Solving for alpha.water, Initial residual = 0.0163555148049094219, Final residual = 9.66666960361622059e-09, No Iterations 14
Phase-1 volume fraction = 0.100741855283547524  Min(alpha.water) = 0  Max(alpha.water) = 1.00000000000001932
MULES: Correcting alpha.water
MULES: Correcting alpha.water
Phase-1 volume fraction = 0.100741855283547468  Min(alpha.water) = -0.0272674972496271956  Max(alpha.water) = 1.00000000000001932
DILUPBiCG:  Solving for Ux, Initial residual = 0.371522132921418446, Final residual = 5.75654754140942702e-05, No Iterations 9
DILUPBiCG:  Solving for Uy, Initial residual = 0.262443713082157026, Final residual = 0.000200811461422183271, No Iterations 6
DILUPBiCG:  Solving for Uz, Initial residual = 0.653454330431557096, Final residual = 0.000283823058004999509, No Iterations 9
DICPCG:  Solving for p_rgh, Initial residual = 0.0507613186337545763, Final residual = 0.00246963918365668408, No Iterations 6
DICPCG:  Solving for p_rgh, Initial residual = 0.00241864303198577237, Final residual = 0.000107445484737879311, No Iterations 22
time step continuity errors : sum local = 0.00385631779469172448, global = 0.000650408940304253837, cumulative = -0.0151815985400741132
DICPCG:  Solving for p_rgh, Initial residual = 0.010786985830260375, Final residual = 0.000455168595518876931, No Iterations 14
DICPCG:  Solving for p_rgh, Initial residual = 0.000473116641600012636, Final residual = 8.73801202067129156e-08, No Iterations 70
time step continuity errors : sum local = 3.1526902054999081e-06, global = -2.84605779172173257e-07, cumulative = -0.0151818831458532845
PIMPLE: iteration 15
DICPCG:  Solving for cellDisplacementx:  solution singularity
DICPCG:  Solving for cellDisplacementy:  solution singularity
DICPCG:  Solving for cellDisplacementz:  solution singularity
DICPCG:  Solving for pcorr, Initial residual = 1, Final residual = 8.32548434341328467e-09, No Iterations 115
DICPCG:  Solving for pcorr, Initial residual = 2.9501602875617796e-09, Final residual = 1.61583099179435561e-09, No Iterations 3
time step continuity errors : sum local = 4.319030884776853e-13, global = -3.08453009403991505e-14, cumulative = -0.0151818831458841296
Mesh Courant Number mean: 0 max: 0
smoothSolver:  Solving for alpha.water, Initial residual = 0.0147734765469511361, Final residual = 3.78292561568942681e-09, No Iterations 12
Phase-1 volume fraction = 0.100741858261421097  Min(alpha.water) = 0  Max(alpha.water) = 1.00000000000008593
MULES: Correcting alpha.water
MULES: Correcting alpha.water
Phase-1 volume fraction = 0.100741858261421402  Min(alpha.water) = -0.0105963267342861524  Max(alpha.water) = 1.00000000000008593
DILUPBiCG:  Solving for Ux, Initial residual = 0.517432396560633445, Final residual = 0.000237288158762674633, No Iterations 6
DILUPBiCG:  Solving for Uy, Initial residual = 0.297863712874267994, Final residual = 0.000172201806349517837, No Iterations 6
DILUPBiCG:  Solving for Uz, Initial residual = 0.757641410482661315, Final residual = 0.000161739988629228901, No Iterations 6
DICPCG:  Solving for p_rgh, Initial residual = 0.0460231964043079991, Final residual = 0.00219374142581851578, No Iterations 7
DICPCG:  Solving for p_rgh, Initial residual = 0.00226401309839697812, Final residual = 0.000111927377368493022, No Iterations 30
time step continuity errors : sum local = 0.00413565583142040151, global = -0.000114600790134704796, cumulative = -0.015296483936018835
DICPCG:  Solving for p_rgh, Initial residual = 0.0120273554008974558, Final residual = 0.000543874856646468677, No Iterations 16
DICPCG:  Solving for p_rgh, Initial residual = 0.000518344337820941586, Final residual = 7.10032545733958555e-08, No Iterations 71
time step continuity errors : sum local = 2.56833056244885774e-06, global = 1.36372582001235416e-07, cumulative = -0.0152963475634368337
PIMPLE: iteration 16
DICPCG:  Solving for cellDisplacementx:  solution singularity
DICPCG:  Solving for cellDisplacementy:  solution singularity
DICPCG:  Solving for cellDisplacementz:  solution singularity
DICPCG:  Solving for pcorr, Initial residual = 1, Final residual = 8.24790133815758732e-09, No Iterations 116
DICPCG:  Solving for pcorr, Initial residual = 4.08591347078346035e-09, Final residual = 2.00993430363887674e-09, No Iterations 3
time step continuity errors : sum local = 1.63830709252005882e-13, global = 5.12514566150974415e-15, cumulative = -0.0152963475634317093
Mesh Courant Number mean: 0 max: 0
smoothSolver:  Solving for alpha.water, Initial residual = 0.0150038475800473824, Final residual = 6.84507818590777011e-09, No Iterations 12
Phase-1 volume fraction = 0.100741856440367913  Min(alpha.water) = 0  Max(alpha.water) = 1.00000000000001199
MULES: Correcting alpha.water
MULES: Correcting alpha.water
Phase-1 volume fraction = 0.100741856440368108  Min(alpha.water) = -0.0541647126610476856  Max(alpha.water) = 1.00000000000001199
DILUPBiCG:  Solving for Ux, Initial residual = 0.450942990065704152, Final residual = 3.29881832274366444e-05, No Iterations 8
DILUPBiCG:  Solving for Uy, Initial residual = 0.248712366126938256, Final residual = 0.000116597728597595988, No Iterations 6
DILUPBiCG:  Solving for Uz, Initial residual = 0.722642539931697914, Final residual = 0.000298880481684938584, No Iterations 6
DICPCG:  Solving for p_rgh, Initial residual = 0.0366118651034137502, Final residual = 0.00159826690277291837, No Iterations 5
DICPCG:  Solving for p_rgh, Initial residual = 0.00160453703872495625, Final residual = 6.81497650529375198e-05, No Iterations 19
time step continuity errors : sum local = 0.00227185600392597244, global = 5.51757854352238735e-06, cumulative = -0.0152908299848881872
DICPCG:  Solving for p_rgh, Initial residual = 0.00914872651825257913, Final residual = 0.000405727774292261208, No Iterations 12
DICPCG:  Solving for p_rgh, Initial residual = 0.00040784595832411201, Final residual = 7.9504353615208055e-08, No Iterations 70
time step continuity errors : sum local = 2.65153132217126228e-06, global = -2.59371447229340828e-08, cumulative = -0.0152908559220329109
PIMPLE: iteration 17
DICPCG:  Solving for cellDisplacementx:  solution singularity
DICPCG:  Solving for cellDisplacementy:  solution singularity
DICPCG:  Solving for cellDisplacementz:  solution singularity
DICPCG:  Solving for pcorr, Initial residual = 1, Final residual = 9.88494176959319817e-09, No Iterations 112
DICPCG:  Solving for pcorr, Initial residual = 3.79337991628849812e-09, Final residual = 2.41578902331956158e-09, No Iterations 3
time step continuity errors : sum local = 4.98970837228914599e-13, global = -3.73219183051865876e-14, cumulative = -0.0152908559220702334
Mesh Courant Number mean: 0 max: 0
smoothSolver:  Solving for alpha.water, Initial residual = 0.0150705254653135962, Final residual = 3.57221668496596101e-09, No Iterations 13
Phase-1 volume fraction = 0.100741857785008632  Min(alpha.water) = 0  Max(alpha.water) = 1.00000000000003686
MULES: Correcting alpha.water
MULES: Correcting alpha.water
Phase-1 volume fraction = 0.100741857785008854  Min(alpha.water) = -0.0200783796428270558  Max(alpha.water) = 1.00000000000003686
DILUPBiCG:  Solving for Ux, Initial residual = 0.423467488571542761, Final residual = 3.95037459768793125e-05, No Iterations 8
DILUPBiCG:  Solving for Uy, Initial residual = 0.250795273907520988, Final residual = 8.19094387885059821e-05, No Iterations 6
DILUPBiCG:  Solving for Uz, Initial residual = 0.755236252390037444, Final residual = 0.000599159365789911857, No Iterations 6
DICPCG:  Solving for p_rgh, Initial residual = 0.0460590092728981326, Final residual = 0.00226992794817354676, No Iterations 4
DICPCG:  Solving for p_rgh, Initial residual = 0.00226012861736357533, Final residual = 0.000109874435621717788, No Iterations 31
time step continuity errors : sum local = 0.00411493445157481898, global = 0.000765474850451953906, cumulative = -0.0145253810716182794
DICPCG:  Solving for p_rgh, Initial residual = 0.0105595433952777595, Final residual = 0.000457404340383398889, No Iterations 14
DICPCG:  Solving for p_rgh, Initial residual = 0.000457502791229329653, Final residual = 8.65801077477852128e-08, No Iterations 69
time step continuity errors : sum local = 3.15331217606204608e-06, global = 1.88882950825730587e-07, cumulative = -0.0145251921886674542
PIMPLE: iteration 18
DICPCG:  Solving for cellDisplacementx:  solution singularity
DICPCG:  Solving for cellDisplacementy:  solution singularity
DICPCG:  Solving for cellDisplacementz:  solution singularity
DICPCG:  Solving for pcorr, Initial residual = 1, Final residual = 9.81765007645766877e-09, No Iterations 114
DICPCG:  Solving for pcorr, Initial residual = 4.21833092877757683e-09, Final residual = 2.08362984403632776e-09, No Iterations 3
time step continuity errors : sum local = 1.40438001037473549e-13, global = 2.53759521079256513e-15, cumulative = -0.0145251921886649163
Mesh Courant Number mean: 0 max: 0
smoothSolver:  Solving for alpha.water, Initial residual = 0.013118886894833948, Final residual = 3.78088858093394858e-09, No Iterations 12
Phase-1 volume fraction = 0.10074185769947018  Min(alpha.water) = 0  Max(alpha.water) = 1.0000000000000131
MULES: Correcting alpha.water
MULES: Correcting alpha.water
Phase-1 volume fraction = 0.100741857699470166  Min(alpha.water) = -0.0142459207434097491  Max(alpha.water) = 1.0000000000000131
DILUPBiCG:  Solving for Ux, Initial residual = 0.388385741638020587, Final residual = 5.95392901070198756e-05, No Iterations 8
DILUPBiCG:  Solving for Uy, Initial residual = 0.213183946841008554, Final residual = 3.42929148102894812e-05, No Iterations 6
DILUPBiCG:  Solving for Uz, Initial residual = 0.787287818110226634, Final residual = 0.000714239590406239608, No Iterations 5
DICPCG:  Solving for p_rgh, Initial residual = 0.0384690980997274626, Final residual = 0.0018194241728489496, No Iterations 4
DICPCG:  Solving for p_rgh, Initial residual = 0.00184533868222201409, Final residual = 8.88931710510757329e-05, No Iterations 18
time step continuity errors : sum local = 0.00316679366798340231, global = -0.000995611312438628984, cumulative = -0.0155208035011035455
DICPCG:  Solving for p_rgh, Initial residual = 0.0083417110596922181, Final residual = 0.000375008755367089704, No Iterations 11
DICPCG:  Solving for p_rgh, Initial residual = 0.000371721436483304728, Final residual = 8.9976102129311938e-08, No Iterations 69
time step continuity errors : sum local = 3.19503622402933488e-06, global = 5.09274243482405625e-08, cumulative = -0.0155207525736791967
PIMPLE: iteration 19
DICPCG:  Solving for cellDisplacementx:  solution singularity
DICPCG:  Solving for cellDisplacementy:  solution singularity
DICPCG:  Solving for cellDisplacementz:  solution singularity
DICPCG:  Solving for pcorr, Initial residual = 1, Final residual = 9.89206883035208623e-09, No Iterations 114
DICPCG:  Solving for pcorr, Initial residual = 4.80206041851112253e-09, Final residual = 2.25564608471521949e-09, No Iterations 3
time step continuity errors : sum local = 1.76000444097352608e-13, global = 4.81945446163470186e-15, cumulative = -0.0155207525736743776
Mesh Courant Number mean: 0 max: 0
smoothSolver:  Solving for alpha.water, Initial residual = 0.0136606238857282253, Final residual = 7.09618411224899087e-09, No Iterations 10
Phase-1 volume fraction = 0.100741856360919424  Min(alpha.water) = 0  Max(alpha.water) = 1.00000000000000577
MULES: Correcting alpha.water
MULES: Correcting alpha.water
Phase-1 volume fraction = 0.100741856360920048  Min(alpha.water) = -0.0136209734623900687  Max(alpha.water) = 1.00000000000000577
DILUPBiCG:  Solving for Ux, Initial residual = 0.368633780154412172, Final residual = 0.000135231966890876344, No Iterations 6
DILUPBiCG:  Solving for Uy, Initial residual = 0.229127285292733074, Final residual = 0.000175277684427343247, No Iterations 5
DILUPBiCG:  Solving for Uz, Initial residual = 0.737729421304917032, Final residual = 0.000472804399117511293, No Iterations 5
DICPCG:  Solving for p_rgh, Initial residual = 0.0291942259502666959, Final residual = 0.00140132904861616728, No Iterations 5
DICPCG:  Solving for p_rgh, Initial residual = 0.00140223706838222368, Final residual = 6.41233439185144311e-05, No Iterations 33
time step continuity errors : sum local = 0.00215488843185315457, global = 0.000487135550603742806, cumulative = -0.0150336170230706348
DICPCG:  Solving for p_rgh, Initial residual = 0.00773687470211117771, Final residual = 0.000358345505367103239, No Iterations 11
DICPCG:  Solving for p_rgh, Initial residual = 0.000357361131878952253, Final residual = 9.7721109054219959e-08, No Iterations 70
time step continuity errors : sum local = 3.22876357772892036e-06, global = -4.33072214898822325e-08, cumulative = -0.0150336603302921243
PIMPLE: iteration 20
DICPCG:  Solving for cellDisplacementx:  solution singularity
DICPCG:  Solving for cellDisplacementy:  solution singularity
DICPCG:  Solving for cellDisplacementz:  solution singularity
DICPCG:  Solving for pcorr, Initial residual = 1, Final residual = 7.6933117767881208e-09, No Iterations 116
DICPCG:  Solving for pcorr, Initial residual = 2.46466748578474728e-09, Final residual = 1.34932182512482839e-09, No Iterations 3
time step continuity errors : sum local = 3.2165748005435402e-13, global = -4.29980921060085651e-15, cumulative = -0.0150336603302964247
Mesh Courant Number mean: 0 max: 0
smoothSolver:  Solving for alpha.water, Initial residual = 0.0128434492616679979, Final residual = 4.17758910539854212e-09, No Iterations 11
Phase-1 volume fraction = 0.10074185753876673  Min(alpha.water) = 0  Max(alpha.water) = 1.00000000000003064
MULES: Correcting alpha.water
MULES: Correcting alpha.water
Phase-1 volume fraction = 0.100741857538767118  Min(alpha.water) = -0.0085360223618178039  Max(alpha.water) = 1.00000000000003064
DILUPBiCG:  Solving for Ux, Initial residual = 0.377893269795328057, Final residual = 0.000108890825131723902, No Iterations 6
DILUPBiCG:  Solving for Uy, Initial residual = 0.206302662170229856, Final residual = 8.68478421156734489e-05, No Iterations 5
DILUPBiCG:  Solving for Uz, Initial residual = 0.744644168689706398, Final residual = 0.000285789132018059459, No Iterations 6
DICPCG:  Solving for p_rgh, Initial residual = 0.0558450511509534439, Final residual = 0.00272532314579375769, No Iterations 4
DICPCG:  Solving for p_rgh, Initial residual = 0.00273991689248386612, Final residual = 0.000120223084054466001, No Iterations 18
time step continuity errors : sum local = 0.00478311401505355626, global = -0.000335209491072524491, cumulative = -0.0153688698213689488
DICPCG:  Solving for p_rgh, Initial residual = 0.0106508613093518542, Final residual = 0.00051113494943767681, No Iterations 10
DICPCG:  Solving for p_rgh, Initial residual = 0.000510456699613696246, Final residual = 7.96035788634535615e-08, No Iterations 72
time step continuity errors : sum local = 3.12791272362276471e-06, global = 2.45096704873271433e-07, cumulative = -0.0153686247246640761
PIMPLE: iteration 21
DICPCG:  Solving for cellDisplacementx:  solution singularity
DICPCG:  Solving for cellDisplacementy:  solution singularity
DICPCG:  Solving for cellDisplacementz:  solution singularity
DICPCG:  Solving for pcorr, Initial residual = 1, Final residual = 8.83493113591471369e-09, No Iterations 110
DICPCG:  Solving for pcorr, Initial residual = 4.06386002520072166e-09, Final residual = 1.76733369446729006e-09, No Iterations 3
time step continuity errors : sum local = 1.04627018172182409e-13, global = 2.69101327895639907e-15, cumulative = -0.0153686247246613856
Mesh Courant Number mean: 0 max: 0
smoothSolver:  Solving for alpha.water, Initial residual = 0.0129022631783193027, Final residual = 5.73501821414205439e-09, No Iterations 10
Phase-1 volume fraction = 0.100741859315446283  Min(alpha.water) = 0  Max(alpha.water) = 1.00000000000001155
MULES: Correcting alpha.water
MULES: Correcting alpha.water
Phase-1 volume fraction = 0.100741859315446769  Min(alpha.water) = -0.00430268095075852196  Max(alpha.water) = 1.00000000000001155
DILUPBiCG:  Solving for Ux, Initial residual = 0.349672330973001877, Final residual = 0.000312132391242338344, No Iterations 6
DILUPBiCG:  Solving for Uy, Initial residual = 0.205555645952467531, Final residual = 4.91134048193795313e-05, No Iterations 6
DILUPBiCG:  Solving for Uz, Initial residual = 0.793687089439134685, Final residual = 0.000206136373963326986, No Iterations 6
DICPCG:  Solving for p_rgh, Initial residual = 0.0355618534215639062, Final residual = 0.0015950859672997854, No Iterations 4
DICPCG:  Solving for p_rgh, Initial residual = 0.00159761624293374761, Final residual = 7.69949440625425385e-05, No Iterations 20
time step continuity errors : sum local = 0.00281998000572010422, global = 0.000801683753404601484, cumulative = -0.0145669409712567838
DICPCG:  Solving for p_rgh, Initial residual = 0.00746650742612014941, Final residual = 0.000321535271431243439, No Iterations 10
DICPCG:  Solving for p_rgh, Initial residual = 0.000321227570344150047, Final residual = 8.15862420941161381e-08, No Iterations 68
time step continuity errors : sum local = 2.94350617277270518e-06, global = -9.7390554709016537e-08, cumulative = -0.0145670383618114931
PIMPLE: iteration 22
DICPCG:  Solving for cellDisplacementx:  solution singularity
DICPCG:  Solving for cellDisplacementy:  solution singularity
DICPCG:  Solving for cellDisplacementz:  solution singularity
DICPCG:  Solving for pcorr, Initial residual = 1, Final residual = 9.26424318416402674e-09, No Iterations 111
DICPCG:  Solving for pcorr, Initial residual = 4.2525925162280487e-09, Final residual = 2.82473594888425315e-09, No Iterations 3
time step continuity errors : sum local = 1.92211339714464191e-13, global = 2.21982584718731271e-14, cumulative = -0.0145670383617892956
Mesh Courant Number mean: 0 max: 0
smoothSolver:  Solving for alpha.water, Initial residual = 0.0129191886477714232, Final residual = 9.07889538738232045e-09, No Iterations 10
Phase-1 volume fraction = 0.100741855533257471  Min(alpha.water) = 0  Max(alpha.water) = 1.00000000000001088
MULES: Correcting alpha.water
MULES: Correcting alpha.water
Phase-1 volume fraction = 0.100741855533257388  Min(alpha.water) = -0.00433138953881610778  Max(alpha.water) = 1.00000000000001088
DILUPBiCG:  Solving for Ux, Initial residual = 0.365609139266470651, Final residual = 0.000329305489104660262, No Iterations 6
DILUPBiCG:  Solving for Uy, Initial residual = 0.226204815944475363, Final residual = 0.00018062419381870956, No Iterations 5
DILUPBiCG:  Solving for Uz, Initial residual = 0.758428236095510022, Final residual = 0.00044525854392127301, No Iterations 5
DICPCG:  Solving for p_rgh, Initial residual = 0.0318648485115964747, Final residual = 0.00148025877107235844, No Iterations 4
DICPCG:  Solving for p_rgh, Initial residual = 0.00147460838354119086, Final residual = 5.79968083768394783e-05, No Iterations 15
time step continuity errors : sum local = 0.00208339896501832022, global = 0.000572403828572580855, cumulative = -0.0139946345332167144
DICPCG:  Solving for p_rgh, Initial residual = 0.00701014119601236878, Final residual = 0.000330616723554126221, No Iterations 10
DICPCG:  Solving for p_rgh, Initial residual = 0.000332671115530587687, Final residual = 8.7021884922076135e-08, No Iterations 66
time step continuity errors : sum local = 3.11677523793416577e-06, global = -2.01397886915025153e-07, cumulative = -0.0139948359311036288
PIMPLE: iteration 23
DICPCG:  Solving for cellDisplacementx:  solution singularity
DICPCG:  Solving for cellDisplacementy:  solution singularity
DICPCG:  Solving for cellDisplacementz:  solution singularity
DICPCG:  Solving for pcorr, Initial residual = 1, Final residual = 9.86684476220356689e-09, No Iterations 117
DICPCG:  Solving for pcorr, Initial residual = 3.26599403422784064e-09, Final residual = 1.70894976552067883e-09, No Iterations 3
time step continuity errors : sum local = 4.50120750820831288e-13, global = 3.51475846817016004e-15, cumulative = -0.0139948359311001143
Mesh Courant Number mean: 0 max: 0
smoothSolver:  Solving for alpha.water, Initial residual = 0.0136475955282819843, Final residual = 3.98321195613173079e-09, No Iterations 8
Phase-1 volume fraction = 0.10074186039884292  Min(alpha.water) = 0  Max(alpha.water) = 1.00000000000001932
MULES: Correcting alpha.water
MULES: Correcting alpha.water
Phase-1 volume fraction = 0.10074186039884328  Min(alpha.water) = -0.0061344704231488488  Max(alpha.water) = 1.00000000000001932
DILUPBiCG:  Solving for Ux, Initial residual = 0.373425844086709535, Final residual = 0.000174971018844811239, No Iterations 6
DILUPBiCG:  Solving for Uy, Initial residual = 0.213901923084076517, Final residual = 0.000124262084529133676, No Iterations 5
DILUPBiCG:  Solving for Uz, Initial residual = 0.760305563292927866, Final residual = 0.000754520366137822595, No Iterations 5
DICPCG:  Solving for p_rgh, Initial residual = 0.0452780257154770938, Final residual = 0.00190384029483812891, No Iterations 4
DICPCG:  Solving for p_rgh, Initial residual = 0.00191222093789525805, Final residual = 9.0190676959225671e-05, No Iterations 20
time step continuity errors : sum local = 0.00350403973206178058, global = -0.000629154979354686365, cumulative = -0.0146239909104548
DICPCG:  Solving for p_rgh, Initial residual = 0.00805677892457056649, Final residual = 0.000350173207102705058, No Iterations 11
DICPCG:  Solving for p_rgh, Initial residual = 0.000347807753360167705, Final residual = 9.92518535417941199e-08, No Iterations 68
time step continuity errors : sum local = 3.78880331907830133e-06, global = 3.03801003445548482e-07, cumulative = -0.014623687109451354
PIMPLE: iteration 24
DICPCG:  Solving for cellDisplacementx:  solution singularity
DICPCG:  Solving for cellDisplacementy:  solution singularity
DICPCG:  Solving for cellDisplacementz:  solution singularity
DICPCG:  Solving for pcorr, Initial residual = 1, Final residual = 8.99031271663387769e-09, No Iterations 114
DICPCG:  Solving for pcorr, Initial residual = 4.7025885402525156e-09, Final residual = 2.34826041544168405e-09, No Iterations 3
time step continuity errors : sum local = 1.33080602852487856e-13, global = 1.28093503144116996e-15, cumulative = -0.0146236871094500738
Mesh Courant Number mean: 0 max: 0
smoothSolver:  Solving for alpha.water, Initial residual = 0.0131181977462000929, Final residual = 4.83756299495667951e-09, No Iterations 10
Phase-1 volume fraction = 0.100741857329461684  Min(alpha.water) = 0  Max(alpha.water) = 1.00000000000001132
MULES: Correcting alpha.water
MULES: Correcting alpha.water
Phase-1 volume fraction = 0.100741857329461754  Min(alpha.water) = -0.0119849387239922105  Max(alpha.water) = 1.00000000000001132
DILUPBiCG:  Solving for Ux, Initial residual = 0.342733809467425876, Final residual = 0.000231054810574304821, No Iterations 6
DILUPBiCG:  Solving for Uy, Initial residual = 0.199510344763138309, Final residual = 8.77935112294689324e-05, No Iterations 5
DILUPBiCG:  Solving for Uz, Initial residual = 0.812614319640808214, Final residual = 0.000350450823163426129, No Iterations 5
DICPCG:  Solving for p_rgh, Initial residual = 0.0537824410975987002, Final residual = 0.00225045944898264252, No Iterations 3
DICPCG:  Solving for p_rgh, Initial residual = 0.0022742122417962439, Final residual = 0.00010228038121828226, No Iterations 15
time step continuity errors : sum local = 0.00385434807571979812, global = -3.20998367146893744e-05, cumulative = -0.0146557869461647634
DICPCG:  Solving for p_rgh, Initial residual = 0.00865877762038449669, Final residual = 0.000387649401696739024, No Iterations 9
DICPCG:  Solving for p_rgh, Initial residual = 0.000389472049702538662, Final residual = 8.49852319857846141e-08, No Iterations 66
time step continuity errors : sum local = 3.19162667969745113e-06, global = -6.41753723432873426e-08, cumulative = -0.014655851121537106
PIMPLE: iteration 25
DICPCG:  Solving for cellDisplacementx:  solution singularity
DICPCG:  Solving for cellDisplacementy:  solution singularity
DICPCG:  Solving for cellDisplacementz:  solution singularity
DICPCG:  Solving for pcorr, Initial residual = 1, Final residual = 9.21042348363688063e-09, No Iterations 114
DICPCG:  Solving for pcorr, Initial residual = 4.61104753738639331e-09, Final residual = 2.94608246302990843e-09, No Iterations 3
time step continuity errors : sum local = 2.11609119827298078e-13, global = 2.61827634797009314e-15, cumulative = -0.0146558511215344883
Mesh Courant Number mean: 0 max: 0
smoothSolver:  Solving for alpha.water, Initial residual = 0.0133667438005726277, Final residual = 9.82433385717628865e-09, No Iterations 13
Phase-1 volume fraction = 0.100741862127061516  Min(alpha.water) = 0  Max(alpha.water) = 1.00000000000001621
MULES: Correcting alpha.water
MULES: Correcting alpha.water
Phase-1 volume fraction = 0.100741862127061862  Min(alpha.water) = -0.0119798419801991282  Max(alpha.water) = 1.00000000000001621
DILUPBiCG:  Solving for Ux, Initial residual = 0.362383485192148969, Final residual = 0.000155013397066516319, No Iterations 7
DILUPBiCG:  Solving for Uy, Initial residual = 0.235352441833488968, Final residual = 0.000190976536610472673, No Iterations 5
DILUPBiCG:  Solving for Uz, Initial residual = 0.793219843440458372, Final residual = 0.000790677909011387042, No Iterations 5
DICPCG:  Solving for p_rgh, Initial residual = 0.0291074026653748083, Final residual = 0.0012199641125868973, No Iterations 4
DICPCG:  Solving for p_rgh, Initial residual = 0.00121737302713964633, Final residual = 5.71410773968789319e-05, No Iterations 21
time step continuity errors : sum local = 0.00199728843235851558, global = 0.000134963258992592091, cumulative = -0.014520887862541897
DICPCG:  Solving for p_rgh, Initial residual = 0.00643382881138187569, Final residual = 0.000296804246919789858, No Iterations 11
DICPCG:  Solving for p_rgh, Initial residual = 0.000296915659858315963, Final residual = 8.64317212063736845e-08, No Iterations 66
time step continuity errors : sum local = 2.98424758494938288e-06, global = 9.57315118064349355e-08, cumulative = -0.0145207921310300907
PIMPLE: iteration 26
DICPCG:  Solving for cellDisplacementx:  solution singularity
DICPCG:  Solving for cellDisplacementy:  solution singularity
DICPCG:  Solving for cellDisplacementz:  solution singularity
DICPCG:  Solving for pcorr, Initial residual = 1, Final residual = 8.80710755356434219e-09, No Iterations 115
DICPCG:  Solving for pcorr, Initial residual = 2.54913026565847021e-09, Final residual = 1.1980191550387979e-09, No Iterations 3
time step continuity errors : sum local = 1.60471537934079436e-13, global = -7.72474151479525894e-15, cumulative = -0.0145207921310378154
Mesh Courant Number mean: 0 max: 0
smoothSolver:  Solving for alpha.water, Initial residual = 0.0118320131856048307, Final residual = 8.34322823902428583e-09, No Iterations 8
Phase-1 volume fraction = 0.100741856552114373  Min(alpha.water) = 0  Max(alpha.water) = 1.00000000000001354
MULES: Correcting alpha.water
MULES: Correcting alpha.water
Phase-1 volume fraction = 0.1007418565521144  Min(alpha.water) = -0.00615359553395931902  Max(alpha.water) = 1.00000000000001354
DILUPBiCG:  Solving for Ux, Initial residual = 0.326625941579699541, Final residual = 0.000149452600775278868, No Iterations 5
DILUPBiCG:  Solving for Uy, Initial residual = 0.184611893954211209, Final residual = 0.000144633603152393884, No Iterations 4
DILUPBiCG:  Solving for Uz, Initial residual = 0.829535839554013554, Final residual = 0.000809377167597624052, No Iterations 5
DICPCG:  Solving for p_rgh, Initial residual = 0.0519426599081501128, Final residual = 0.00232549469154430576, No Iterations 3
DICPCG:  Solving for p_rgh, Initial residual = 0.00234582091531875024, Final residual = 0.000103798066275970278, No Iterations 16
time step continuity errors : sum local = 0.0039786410901194013, global = -0.000789530596847208034, cumulative = -0.0153103227278850243
DICPCG:  Solving for p_rgh, Initial residual = 0.00772056105127428248, Final residual = 0.000361685776498364296, No Iterations 7
DICPCG:  Solving for p_rgh, Initial residual = 0.000362674161995279554, Final residual = 8.42995069609881031e-08, No Iterations 70
time step continuity errors : sum local = 3.20879924358116455e-06, global = 3.65881953245735675e-07, cumulative = -0.0153099568459317791
PIMPLE: iteration 27
DICPCG:  Solving for cellDisplacementx:  solution singularity
DICPCG:  Solving for cellDisplacementy:  solution singularity
DICPCG:  Solving for cellDisplacementz:  solution singularity
DICPCG:  Solving for pcorr, Initial residual = 1, Final residual = 7.52824919150392834e-09, No Iterations 111
DICPCG:  Solving for pcorr, Initial residual = 3.59257182675640419e-09, Final residual = 2.16436905791371069e-09, No Iterations 3
time step continuity errors : sum local = 1.12773299677518983e-13, global = 1.92754180531391401e-15, cumulative = -0.0153099568459298518
Mesh Courant Number mean: 0 max: 0
smoothSolver:  Solving for alpha.water, Initial residual = 0.0154546863781815889, Final residual = 3.31338233085794411e-09, No Iterations 10
Phase-1 volume fraction = 0.100741860334170319  Min(alpha.water) = 0  Max(alpha.water) = 1.00000000000000999
MULES: Correcting alpha.water
MULES: Correcting alpha.water
Phase-1 volume fraction = 0.100741860334170666  Min(alpha.water) = -0.014592509426387781  Max(alpha.water) = 1.00000000000000999
DILUPBiCG:  Solving for Ux, Initial residual = 0.375738374496478122, Final residual = 0.000132275971187711906, No Iterations 5
DILUPBiCG:  Solving for Uy, Initial residual = 0.230676014029279758, Final residual = 4.16992646421057505e-05, No Iterations 5
DILUPBiCG:  Solving for Uz, Initial residual = 0.840798275718110721, Final residual = 0.000428829587930596172, No Iterations 5
DICPCG:  Solving for p_rgh, Initial residual = 0.0257678603953379569, Final residual = 0.00117053019577629679, No Iterations 3
DICPCG:  Solving for p_rgh, Initial residual = 0.00116991281487684455, Final residual = 5.24945877636789167e-05, No Iterations 32
time step continuity errors : sum local = 0.00181184647498873149, global = 0.000395565173155837391, cumulative = -0.0149143916727740144
DICPCG:  Solving for p_rgh, Initial residual = 0.00591584407768128498, Final residual = 0.000282934930417603678, No Iterations 8
DICPCG:  Solving for p_rgh, Initial residual = 0.000283152858632448293, Final residual = 7.90953162508231475e-08, No Iterations 71
time step continuity errors : sum local = 2.70268448705910016e-06, global = -1.24464902164231786e-07, cumulative = -0.0149145161376761787
PIMPLE: iteration 28
DICPCG:  Solving for cellDisplacementx:  solution singularity
DICPCG:  Solving for cellDisplacementy:  solution singularity
DICPCG:  Solving for cellDisplacementz:  solution singularity
DICPCG:  Solving for pcorr, Initial residual = 1, Final residual = 9.71104685722480486e-09, No Iterations 114
DICPCG:  Solving for pcorr, Initial residual = 3.14504382740615808e-09, Final residual = 1.93314241856270692e-09, No Iterations 3
time step continuity errors : sum local = 2.81711445289242961e-13, global = 2.82553454611924705e-16, cumulative = -0.0149145161376758959
Mesh Courant Number mean: 0 max: 0
smoothSolver:  Solving for alpha.water, Initial residual = 0.0128615143342430179, Final residual = 4.31497261246100076e-09, No Iterations 9
Phase-1 volume fraction = 0.100741857507903335  Min(alpha.water) = 0  Max(alpha.water) = 1.00000000000004174
MULES: Correcting alpha.water
MULES: Correcting alpha.water
Phase-1 volume fraction = 0.100741857507903723  Min(alpha.water) = -0.00624965239578756382  Max(alpha.water) = 1.00000000000004174
DILUPBiCG:  Solving for Ux, Initial residual = 0.348415357927957636, Final residual = 8.21700474024982891e-05, No Iterations 7
DILUPBiCG:  Solving for Uy, Initial residual = 0.209097501812171016, Final residual = 0.000149397795571844602, No Iterations 4
DILUPBiCG:  Solving for Uz, Initial residual = 0.797490801749690004, Final residual = 0.000582257226080834913, No Iterations 4
DICPCG:  Solving for p_rgh, Initial residual = 0.040479422868899162, Final residual = 0.00165763454480393098, No Iterations 3
DICPCG:  Solving for p_rgh, Initial residual = 0.00166030002360598671, Final residual = 8.18725003616598115e-05, No Iterations 27
time step continuity errors : sum local = 0.00299261594298598716, global = -0.000613963331880575244, cumulative = -0.0155284794695564714
DICPCG:  Solving for p_rgh, Initial residual = 0.00752443178418981447, Final residual = 0.000364062248179272501, No Iterations 8
DICPCG:  Solving for p_rgh, Initial residual = 0.000364863966151621265, Final residual = 8.77094192513154623e-08, No Iterations 72
[...]
DICPCG:  Solving for p_rgh, Initial residual = 1.32686814707460688e-05, Final residual = 9.10162035201808341e-08, No Iterations 54
time step continuity errors : sum local = 3.75812089728552375e-06, global = 1.88443920811269698e-07, cumulative = -0.0234399393101469913
PIMPLE: iteration 37
DICPCG:  Solving for cellDisplacementx:  solution singularity
DICPCG:  Solving for cellDisplacementy:  solution singularity
DICPCG:  Solving for cellDisplacementz:  solution singularity
DICPCG:  Solving for pcorr, Initial residual = 1, Final residual = 8.23005575217377637e-09, No Iterations 113
DICPCG:  Solving for pcorr, Initial residual = 3.03061487466897643e-09, Final residual = 1.35006718365297013e-09, No Iterations 3
time step continuity errors : sum local = 9.27657069917985241e-14, global = -1.95215478604766438e-15, cumulative = -0.0234399393101489446
Mesh Courant Number mean: 0 max: 0
smoothSolver:  Solving for alpha.water, Initial residual = 0.0272972788881129212, Final residual = 4.99706935391476604e-09, No Iterations 11
Phase-1 volume fraction = 0.100741865554973942  Min(alpha.water) = -9.25240383289998696e-05  Max(alpha.water) = 0.999999999915797022
MULES: Correcting alpha.water
MULES: Correcting alpha.water
Phase-1 volume fraction = 0.100741865634706898  Min(alpha.water) = -0.0554735153394006197  Max(alpha.water) = 0.999999999917250859
DILUPBiCG:  Solving for Ux, Initial residual = 0.00259986792851554229, Final residual = 3.83690543428852544e-07, No Iterations 7
DILUPBiCG:  Solving for Uy, Initial residual = 0.00220824191083871099, Final residual = 1.65073702766366602e-07, No Iterations 7
DILUPBiCG:  Solving for Uz, Initial residual = 0.0157837388749747821, Final residual = 1.00566094733590864e-05, No Iterations 6
DICPCG:  Solving for p_rgh, Initial residual = 0.000839853962929405047, Final residual = 3.5644019970940618e-05, No Iterations 9
DICPCG:  Solving for p_rgh, Initial residual = 3.55272513696175925e-05, Final residual = 1.74017420027226761e-06, No Iterations 36
time step continuity errors : sum local = 7.17655387692933949e-05, global = 6.24437542938875636e-06, cumulative = -0.0234336949347195567
DICPCG:  Solving for p_rgh, Initial residual = 0.000247227261593240542, Final residual = 1.11541788935810166e-05, No Iterations 14
DICPCG:  Solving for p_rgh, Initial residual = 1.11842615152799699e-05, Final residual = 9.62079384050415439e-08, No Iterations 48
time step continuity errors : sum local = 3.965694550885777e-06, global = 1.90916465043076396e-07, cumulative = -0.0234335040182545133
PIMPLE: iteration 38
DICPCG:  Solving for cellDisplacementx:  solution singularity
DICPCG:  Solving for cellDisplacementy:  solution singularity
DICPCG:  Solving for cellDisplacementz:  solution singularity
DICPCG:  Solving for pcorr, Initial residual = 1, Final residual = 9.6656381105110361e-09, No Iterations 112
DICPCG:  Solving for pcorr, Initial residual = 4.50061065674160971e-09, Final residual = 2.29280602302205031e-09, No Iterations 3
time step continuity errors : sum local = 2.01723628527969963e-13, global = -2.32194265080845023e-15, cumulative = -0.0234335040182568344
Mesh Courant Number mean: 0 max: 0
smoothSolver:  Solving for alpha.water, Initial residual = 0.0273620544758275547, Final residual = 5.07135982159840884e-09, No Iterations 11
Phase-1 volume fraction = 0.100741865448324142  Min(alpha.water) = -9.26526085394593088e-05  Max(alpha.water) = 0.999999999916989624
MULES: Correcting alpha.water
MULES: Correcting alpha.water
Phase-1 volume fraction = 0.100741865572454681  Min(alpha.water) = -0.0554176064919133168  Max(alpha.water) = 0.999999999918426363
DILUPBiCG:  Solving for Ux, Initial residual = 0.00257888846193581739, Final residual = 3.74574941236444299e-07, No Iterations 7
DILUPBiCG:  Solving for Uy, Initial residual = 0.00220287148010874867, Final residual = 1.70451240621503588e-07, No Iterations 7
DILUPBiCG:  Solving for Uz, Initial residual = 0.0152812223675255071, Final residual = 7.02815361062469777e-06, No Iterations 6
DICPCG:  Solving for p_rgh, Initial residual = 0.000883512136875714464, Final residual = 3.91162809530487925e-05, No Iterations 9
DICPCG:  Solving for p_rgh, Initial residual = 3.92425743642093458e-05, Final residual = 1.67553300229356061e-06, No Iterations 39
time step continuity errors : sum local = 6.91568463548950896e-05, global = -2.28803020486115408e-06, cumulative = -0.0234357920484616969
DICPCG:  Solving for p_rgh, Initial residual = 0.000271333760480549043, Final residual = 1.32929417221305377e-05, No Iterations 14
DICPCG:  Solving for p_rgh, Initial residual = 1.32571108673618917e-05, Final residual = 9.05468433360727855e-08, No Iterations 54
time step continuity errors : sum local = 3.73873368747047874e-06, global = 1.87319049308988067e-07, cumulative = -0.0234356047294123869
PIMPLE: iteration 39
DICPCG:  Solving for cellDisplacementx:  solution singularity
DICPCG:  Solving for cellDisplacementy:  solution singularity
DICPCG:  Solving for cellDisplacementz:  solution singularity
DICPCG:  Solving for pcorr, Initial residual = 1, Final residual = 8.1528433278420722e-09, No Iterations 113
DICPCG:  Solving for pcorr, Initial residual = 3.00320117633398103e-09, Final residual = 1.32912202298047626e-09, No Iterations 3
time step continuity errors : sum local = 9.12327649758376895e-14, global = -1.89364612952086188e-15, cumulative = -0.0234356047294142812
Mesh Courant Number mean: 0 max: 0
smoothSolver:  Solving for alpha.water, Initial residual = 0.0272975237690973559, Final residual = 4.99547750677517773e-09, No Iterations 11
Phase-1 volume fraction = 0.100741865554545312  Min(alpha.water) = -9.25239849161082605e-05  Max(alpha.water) = 0.999999999915797466
MULES: Correcting alpha.water
MULES: Correcting alpha.water
Phase-1 volume fraction = 0.100741865634275771  Min(alpha.water) = -0.0555232162403426072  Max(alpha.water) = 0.999999999917251303
DILUPBiCG:  Solving for Ux, Initial residual = 0.00259746193689757441, Final residual = 3.86214093584896248e-07, No Iterations 7
DILUPBiCG:  Solving for Uy, Initial residual = 0.00220762822924876895, Final residual = 1.65006400665420888e-07, No Iterations 7
DILUPBiCG:  Solving for Uz, Initial residual = 0.0157736527524003425, Final residual = 9.8089975227346424e-06, No Iterations 6
DICPCG:  Solving for p_rgh, Initial residual = 0.000839873486175081408, Final residual = 3.55904296572965878e-05, No Iterations 9
DICPCG:  Solving for p_rgh, Initial residual = 3.54738422672778794e-05, Final residual = 1.73390003668378297e-06, No Iterations 36
time step continuity errors : sum local = 7.15069774862039475e-05, global = 6.22246176419578736e-06, cumulative = -0.0234293822676500847
DICPCG:  Solving for p_rgh, Initial residual = 0.00024715070398711943, Final residual = 1.11403835412932415e-05, No Iterations 14
DICPCG:  Solving for p_rgh, Initial residual = 1.11704326897775518e-05, Final residual = 9.96581905222769873e-08, No Iterations 48
time step continuity errors : sum local = 4.10791849545604587e-06, global = 1.89755594819980202e-07, cumulative = -0.0234291925120552642
PIMPLE: iteration 40
DICPCG:  Solving for cellDisplacementx:  solution singularity
DICPCG:  Solving for cellDisplacementy:  solution singularity
DICPCG:  Solving for cellDisplacementz:  solution singularity
DICPCG:  Solving for pcorr, Initial residual = 1, Final residual = 8.69203674732914992e-09, No Iterations 112
DICPCG:  Solving for pcorr, Initial residual = 4.06158151712550735e-09, Final residual = 2.03320238205026788e-09, No Iterations 3
time step continuity errors : sum local = 1.78875043171104063e-13, global = -2.08361525204428353e-15, cumulative = -0.0234291925120573494
Mesh Courant Number mean: 0 max: 0
smoothSolver:  Solving for alpha.water, Initial residual = 0.0273619542600005566, Final residual = 5.07259242650553706e-09, No Iterations 11
Phase-1 volume fraction = 0.100741865448587417  Min(alpha.water) = -9.26526231424935448e-05  Max(alpha.water) = 0.999999999916989513
MULES: Correcting alpha.water
MULES: Correcting alpha.water
Phase-1 volume fraction = 0.100741865572732417  Min(alpha.water) = -0.0554392263290709106  Max(alpha.water) = 0.999999999918426141
DILUPBiCG:  Solving for Ux, Initial residual = 0.0025745500979217884, Final residual = 3.81985605634171172e-07, No Iterations 7
DILUPBiCG:  Solving for Uy, Initial residual = 0.00219721929144296464, Final residual = 1.69383130280633633e-07, No Iterations 7
DILUPBiCG:  Solving for Uz, Initial residual = 0.0152594786121312102, Final residual = 6.93632648081487482e-06, No Iterations 6
DICPCG:  Solving for p_rgh, Initial residual = 0.000883143528422302955, Final residual = 3.88731071478496735e-05, No Iterations 9
DICPCG:  Solving for p_rgh, Initial residual = 3.89987852249909538e-05, Final residual = 1.71566547422483458e-06, No Iterations 39
time step continuity errors : sum local = 7.08132288740996189e-05, global = -2.33157686074164062e-06, cumulative = -0.0234315240889180904
DICPCG:  Solving for p_rgh, Initial residual = 0.000271330283588587095, Final residual = 1.33063742380896865e-05, No Iterations 14
DICPCG:  Solving for p_rgh, Initial residual = 1.32704920808545998e-05, Final residual = 9.1032858798274746e-08, No Iterations 54
time step continuity errors : sum local = 3.75881097028067802e-06, global = 1.88575612767038364e-07, cumulative = -0.0234313355133053229
PIMPLE: iteration 41
DICPCG:  Solving for cellDisplacementx:  solution singularity
DICPCG:  Solving for cellDisplacementy:  solution singularity
DICPCG:  Solving for cellDisplacementz:  solution singularity
DICPCG:  Solving for pcorr, Initial residual = 1, Final residual = 8.22950835314364154e-09, No Iterations 113
DICPCG:  Solving for pcorr, Initial residual = 3.02995053657976263e-09, Final residual = 1.3496711501934334e-09, No Iterations 3
time step continuity errors : sum local = 9.27501018639671119e-14, global = -1.95289092922995135e-15, cumulative = -0.0234313355133072762
Mesh Courant Number mean: 0 max: 0
smoothSolver:  Solving for alpha.water, Initial residual = 0.0272972787191676537, Final residual = 4.9970683567621621e-09, No Iterations 11
Phase-1 volume fraction = 0.100741865554993731  Min(alpha.water) = -9.25240248140948135e-05  Max(alpha.water) = 0.999999999915797022
MULES: Correcting alpha.water
MULES: Correcting alpha.water
Phase-1 volume fraction = 0.100741865634720512  Min(alpha.water) = -0.0554735182485266848  Max(alpha.water) = 0.999999999917250859
DILUPBiCG:  Solving for Ux, Initial residual = 0.00259990463414166897, Final residual = 3.83659073506235972e-07, No Iterations 7
DILUPBiCG:  Solving for Uy, Initial residual = 0.00220826982670080515, Final residual = 1.65071734621779171e-07, No Iterations 7
DILUPBiCG:  Solving for Uz, Initial residual = 0.0157840308198918533, Final residual = 1.00564861044069982e-05, No Iterations 6
DICPCG:  Solving for p_rgh, Initial residual = 0.000839875702481590386, Final residual = 3.56473706139429699e-05, No Iterations 9
DICPCG:  Solving for p_rgh, Initial residual = 3.55305846382017695e-05, Final residual = 1.74072469959144291e-06, No Iterations 36
time step continuity errors : sum local = 7.17881925033775077e-05, global = 6.24339310262297831e-06, cumulative = -0.0234250921202046533
DICPCG:  Solving for p_rgh, Initial residual = 0.000247235896013866944, Final residual = 1.11554294453419319e-05, No Iterations 14
DICPCG:  Solving for p_rgh, Initial residual = 1.11855168553205737e-05, Final residual = 9.63972755391022368e-08, No Iterations 48
time step continuity errors : sum local = 3.97349594051734426e-06, global = 1.90956434441371735e-07, cumulative = -0.0234249011637702106
PIMPLE: iteration 42
DICPCG:  Solving for cellDisplacementx:  solution singularity
DICPCG:  Solving for cellDisplacementy:  solution singularity
DICPCG:  Solving for cellDisplacementz:  solution singularity
DICPCG:  Solving for pcorr, Initial residual = 1, Final residual = 9.56652972622893393e-09, No Iterations 112
DICPCG:  Solving for pcorr, Initial residual = 4.45553115875078648e-09, Final residual = 2.16904703365745009e-09, No Iterations 3
time step continuity errors : sum local = 1.90834865965572369e-13, global = -2.16767065384043507e-15, cumulative = -0.023424901163772379
Mesh Courant Number mean: 0 max: 0
smoothSolver:  Solving for alpha.water, Initial residual = 0.0273620566769067486, Final residual = 5.07136175545341141e-09, No Iterations 11
Phase-1 volume fraction = 0.100741865448317466  Min(alpha.water) = -9.26526176123690094e-05  Max(alpha.water) = 0.999999999916989624
MULES: Correcting alpha.water
MULES: Correcting alpha.water
Phase-1 volume fraction = 0.100741865572450698  Min(alpha.water) = -0.0554176130054148397  Max(alpha.water) = 0.999999999918426363
DILUPBiCG:  Solving for Ux, Initial residual = 0.00257895485942623336, Final residual = 3.7458076837562088e-07, No Iterations 7
DILUPBiCG:  Solving for Uy, Initial residual = 0.00220293060479904166, Final residual = 1.70452255687723224e-07, No Iterations 7
DILUPBiCG:  Solving for Uz, Initial residual = 0.0152816209011412442, Final residual = 7.02838704846494056e-06, No Iterations 6
DICPCG:  Solving for p_rgh, Initial residual = 0.000883549626157947615, Final residual = 3.91207814209138679e-05, No Iterations 9
DICPCG:  Solving for p_rgh, Initial residual = 3.92470981873898581e-05, Final residual = 1.6762364997133634e-06, No Iterations 39
time step continuity errors : sum local = 6.9185912858354956e-05, global = -2.28745201543599265e-06, cumulative = -0.0234271886157878147
DICPCG:  Solving for p_rgh, Initial residual = 0.000271350711972250371, Final residual = 1.32951481499813479e-05, No Iterations 14
DICPCG:  Solving for p_rgh, Initial residual = 1.32593091321024943e-05, Final residual = 9.05649160296556065e-08, No Iterations 54
time step continuity errors : sum local = 3.73948183555871882e-06, global = 1.87431600153884114e-07, cumulative = -0.023427001184187661
PIMPLE: iteration 43
DICPCG:  Solving for cellDisplacementx:  solution singularity
DICPCG:  Solving for cellDisplacementy:  solution singularity
DICPCG:  Solving for cellDisplacementz:  solution singularity
DICPCG:  Solving for pcorr, Initial residual = 1, Final residual = 8.15265507618813652e-09, No Iterations 113
DICPCG:  Solving for pcorr, Initial residual = 3.00274855554810608e-09, Final residual = 1.32856700928420775e-09, No Iterations 3
time step continuity errors : sum local = 9.12059488967510707e-14, global = -1.89320157055429409e-15, cumulative = -0.0234270011841895553
Mesh Courant Number mean: 0 max: 0
smoothSolver:  Solving for alpha.water, Initial residual = 0.02729752138578884, Final residual = 4.99547598543554368e-09, No Iterations 11
Phase-1 volume fraction = 0.100741865554565935  Min(alpha.water) = -9.25239720724688869e-05  Max(alpha.water) = 0.999999999915797466
MULES: Correcting alpha.water
MULES: Correcting alpha.water
Phase-1 volume fraction = 0.100741865634288413  Min(alpha.water) = -0.0555232161114030259  Max(alpha.water) = 0.999999999917251303
DILUPBiCG:  Solving for Ux, Initial residual = 0.00259757007109680986, Final residual = 3.8620366953166503e-07, No Iterations 7
DILUPBiCG:  Solving for Uy, Initial residual = 0.00220771958799051427, Final residual = 1.65008634177258943e-07, No Iterations 7
DILUPBiCG:  Solving for Uz, Initial residual = 0.0157742766432483264, Final residual = 9.80912881687370956e-06, No Iterations 6
DICPCG:  Solving for p_rgh, Initial residual = 0.000839914467231070222, Final residual = 3.55943758953786445e-05, No Iterations 9
DICPCG:  Solving for p_rgh, Initial residual = 3.54777655443958259e-05, Final residual = 1.73435302843234673e-06, No Iterations 36
time step continuity errors : sum local = 7.15256204852713891e-05, global = 6.22206339687540929e-06, cumulative = -0.0234207791207926806
DICPCG:  Solving for p_rgh, Initial residual = 0.000247164162494425488, Final residual = 1.11417180679319149e-05, No Iterations 14
DICPCG:  Solving for p_rgh, Initial residual = 1.11717731701824799e-05, Final residual = 9.97755787375361485e-08, No Iterations 48
time step continuity errors : sum local = 4.11275466222018018e-06, global = 1.8976459110277562e-07, cumulative = -0.0234205893562015773
PIMPLE: iteration 44
DICPCG:  Solving for cellDisplacementx:  solution singularity
DICPCG:  Solving for cellDisplacementy:  solution singularity
DICPCG:  Solving for cellDisplacementz:  solution singularity
DICPCG:  Solving for pcorr, Initial residual = 1, Final residual = 9.03788233619372624e-09, No Iterations 112
DICPCG:  Solving for pcorr, Initial residual = 4.2237981699993533e-09, Final residual = 2.09878723393502702e-09, No Iterations 3
time step continuity errors : sum local = 1.84646752914185866e-13, global = -2.29749623669955531e-15, cumulative = -0.023420589356203874
Mesh Courant Number mean: 0 max: 0
smoothSolver:  Solving for alpha.water, Initial residual = 0.0273619562739889355, Final residual = 5.07259501222062171e-09, No Iterations 11
Phase-1 volume fraction = 0.100741865448585252  Min(alpha.water) = -9.26526310893928412e-05  Max(alpha.water) = 0.999999999916989624
MULES: Correcting alpha.water
MULES: Correcting alpha.water
Phase-1 volume fraction = 0.100741865572731751  Min(alpha.water) = -0.0554392301121217901  Max(alpha.water) = 0.999999999918426363
DILUPBiCG:  Solving for Ux, Initial residual = 0.00257468197373831318, Final residual = 3.81998387653692732e-07, No Iterations 7
DILUPBiCG:  Solving for Uy, Initial residual = 0.00219733273326379189, Final residual = 1.69387503500059008e-07, No Iterations 7
DILUPBiCG:  Solving for Uz, Initial residual = 0.0152601497979805486, Final residual = 6.9366258337864233e-06, No Iterations 6
DICPCG:  Solving for p_rgh, Initial residual = 0.000883196826399466374, Final residual = 3.88778548497112824e-05, No Iterations 9
DICPCG:  Solving for p_rgh, Initial residual = 3.90035603169044864e-05, Final residual = 1.71615869204941808e-06, No Iterations 39
time step continuity errors : sum local = 7.08336051920219076e-05, global = -2.33118335110280277e-06, cumulative = -0.0234229205395549769
DICPCG:  Solving for p_rgh, Initial residual = 0.000271350146854221772, Final residual = 1.33083129570015446e-05, No Iterations 14
DICPCG:  Solving for p_rgh, Initial residual = 1.3272422406599825e-05, Final residual = 9.10483388733467976e-08, No Iterations 54
time step continuity errors : sum local = 3.75945141438660734e-06, global = 1.8865746075314736e-07, cumulative = -0.0234227318820942228
PIMPLE: iteration 45
DICPCG:  Solving for cellDisplacementx:  solution singularity
DICPCG:  Solving for cellDisplacementy:  solution singularity
DICPCG:  Solving for cellDisplacementz:  solution singularity
DICPCG:  Solving for pcorr, Initial residual = 1, Final residual = 8.22999137885503229e-09, No Iterations 113
DICPCG:  Solving for pcorr, Initial residual = 3.02983764070720694e-09, Final residual = 1.34968955797791752e-09, No Iterations 3
time step continuity errors : sum local = 9.27593498182959919e-14, global = -1.95219479994533174e-15, cumulative = -0.0234227318820961761
Mesh Courant Number mean: 0 max: 0
smoothSolver:  Solving for alpha.water, Initial residual = 0.0272972745809307374, Final residual = 4.99706628074141435e-09, No Iterations 11
Phase-1 volume fraction = 0.100741865555011564  Min(alpha.water) = -9.25240134016153045e-05  Max(alpha.water) = 0.999999999915797022
MULES: Correcting alpha.water
MULES: Correcting alpha.water
Phase-1 volume fraction = 0.100741865634731156  Min(alpha.water) = -0.0554735217502249009  Max(alpha.water) = 0.999999999917250859
DILUPBiCG:  Solving for Ux, Initial residual = 0.00260006087806529578, Final residual = 3.83668328581488188e-07, No Iterations 7
DILUPBiCG:  Solving for Uy, Initial residual = 0.0022084069727390074, Final residual = 1.65077596322202288e-07, No Iterations 7
DILUPBiCG:  Solving for Uz, Initial residual = 0.0157848585710320018, Final residual = 1.00568330255211369e-05, No Iterations 6
DICPCG:  Solving for p_rgh, Initial residual = 0.000839927596319262385, Final residual = 3.56514108080962551e-05, No Iterations 9
